
Version,                  
    8.2;                      !- Version Identifier

SimulationControl,        
    No,                       !- Do Zone Sizing Calculation
    No,                       !- Do System Sizing Calculation
    No,                       !- Do Plant Sizing Calculation
    No,                       !- Run Simulation for Sizing Periods
    Yes;                      !- Run Simulation for Weather File Run Periods

Building,                 
    RevitModel_nowindows,     !- Name
    0.0,                      !- North Axis
    Suburbs,                  !- Terrain
    0.04,                     !- Loads Convergence Tolerance Value
    0.004,                    !- Temperature Convergence Tolerance Value
    FullExterior,             !- Solar Distribution
    100,                      !- Maximum Number of Warmup Days
    6;                        !- Minimum Number of Warmup Days

SurfaceConvectionAlgorithm:Inside,
    TARP;                     !- Algorithm

SurfaceConvectionAlgorithm:Outside,
    DOE-2;                    !- Algorithm

HeatBalanceAlgorithm,     
    ConductionTransferFunction,    !- Algorithm
    200.0;                    !- Surface Temperature Upper Limit

Timestep,                 
    1;                        !- Number of Timesteps per Hour

RunPeriod,                
    ,                         !- Name
    1,                        !- Begin Month
    1,                        !- Begin Day of Month
    12,                       !- End Month
    31,                       !- End Day of Month
    Tuesday,                  !- Day of Week for Start Day
    Yes,                      !- Use Weather File Holidays and Special Days
    Yes,                      !- Use Weather File Daylight Saving Period
    No,                       !- Apply Weekend Holiday Rule
    Yes,                      !- Use Weather File Rain Indicators
    Yes;                      !- Use Weather File Snow Indicators

SCHEDULETYPELIMITS,       
    HVACTemplate_Any_Number,    !- Name
    ,                         !- Lower Limit Value
    ,                         !- Upper Limit Value
    ,                         !- Numeric Type
    Dimensionless;            !- Unit Type

Schedule:Compact,         
    VentilationSchedule,      !- Name
    Fraction,                 !- Schedule Type Limits Name
    Through: 12/31,           !- Field 1
    For: Weekdays,            !- Field 2
    Until: 01:00,             !- Field 3
    0.3000,                   !- Field 4
    Until: 02:00,             !- Field 5
    0.3000,                   !- Field 6
    Until: 03:00,             !- Field 7
    0.3000,                   !- Field 8
    Until: 04:00,             !- Field 9
    0.3000,                   !- Field 10
    Until: 05:00,             !- Field 11
    0.3000,                   !- Field 12
    Until: 06:00,             !- Field 13
    0.3000,                   !- Field 14
    Until: 07:00,             !- Field 15
    0.3000,                   !- Field 16
    Until: 08:00,             !- Field 17
    0.3000,                   !- Field 18
    Until: 09:00,             !- Field 19
    0.3000,                   !- Field 20
    Until: 10:00,             !- Field 21
    0.9500,                   !- Field 22
    Until: 11:00,             !- Field 23
    0.9500,                   !- Field 24
    Until: 12:00,             !- Field 25
    0.4500,                   !- Field 26
    Until: 13:00,             !- Field 27
    0.4500,                   !- Field 28
    Until: 14:00,             !- Field 29
    0.9500,                   !- Field 30
    Until: 15:00,             !- Field 31
    0.9500,                   !- Field 32
    Until: 16:00,             !- Field 33
    0.9500,                   !- Field 34
    Until: 17:00,             !- Field 35
    0.9500,                   !- Field 36
    Until: 18:00,             !- Field 37
    0.9500,                   !- Field 38
    Until: 19:00,             !- Field 39
    0.3000,                   !- Field 40
    Until: 20:00,             !- Field 41
    0.3000,                   !- Field 42
    Until: 21:00,             !- Field 43
    0.3000,                   !- Field 44
    Until: 22:00,             !- Field 45
    0.3000,                   !- Field 46
    Until: 23:00,             !- Field 47
    0.3000,                   !- Field 48
    Until: 24:00,             !- Field 49
    0.3000,                   !- Field 50
    For: Weekends Holidays SummerDesignDay WinterDesignDay CustomDay1 CustomDay2,    !- Field 51
    Until: 01:00,             !- Field 52
    0.3000,                   !- Field 53
    Until: 02:00,             !- Field 54
    0.3000,                   !- Field 55
    Until: 03:00,             !- Field 56
    0.3000,                   !- Field 57
    Until: 04:00,             !- Field 58
    0.3000,                   !- Field 59
    Until: 05:00,             !- Field 60
    0.3000,                   !- Field 61
    Until: 06:00,             !- Field 62
    0.3000,                   !- Field 63
    Until: 07:00,             !- Field 64
    0.3000,                   !- Field 65
    Until: 08:00,             !- Field 66
    0.3000,                   !- Field 67
    Until: 09:00,             !- Field 68
    0.3000,                   !- Field 69
    Until: 10:00,             !- Field 70
    0.3000,                   !- Field 71
    Until: 11:00,             !- Field 72
    0.3000,                   !- Field 73
    Until: 12:00,             !- Field 74
    0.3000,                   !- Field 75
    Until: 13:00,             !- Field 76
    0.3000,                   !- Field 77
    Until: 14:00,             !- Field 78
    0.3000,                   !- Field 79
    Until: 15:00,             !- Field 80
    0.3000,                   !- Field 81
    Until: 16:00,             !- Field 82
    0.3000,                   !- Field 83
    Until: 17:00,             !- Field 84
    0.3000,                   !- Field 85
    Until: 18:00,             !- Field 86
    0.3000,                   !- Field 87
    Until: 19:00,             !- Field 88
    0.3000,                   !- Field 89
    Until: 20:00,             !- Field 90
    0.3000,                   !- Field 91
    Until: 21:00,             !- Field 92
    0.3000,                   !- Field 93
    Until: 22:00,             !- Field 94
    0.3000,                   !- Field 95
    Until: 23:00,             !- Field 96
    0.3000,                   !- Field 97
    Until: 24:00,             !- Field 98
    0.3000;                   !- Field 99

SCHEDULE:COMPACT,         
    HVACTemplate_Always_20,    !- Name
    HVACTemplate_Any_Number,    !- Schedule Type Limits Name
    Through: 12/31,           !- Field 1
    For: AllDays,             !- Field 2
    Until: 24:00,             !- Field 3
    20;                       !- Field 4

SCHEDULE:COMPACT,         
    HVACTemplate_Always_100,    !- Name
    HVACTemplate_Any_Number,    !- Schedule Type Limits Name
    Through: 12/31,           !- Field 1
    For: AllDays,             !- Field 2
    Until: 24:00,             !- Field 3
    100;                      !- Field 4

SCHEDULE:COMPACT,         
    HVACTemplate_Always_26,    !- Name
    HVACTemplate_Any_Number,    !- Schedule Type Limits Name
    Through: 12/31,           !- Field 1
    For: AllDays,             !- Field 2
    Until: 24:00,             !- Field 3
    26;                       !- Field 4

SCHEDULE:COMPACT,         
    HVACTemplate_Always_4,    !- Name
    HVACTemplate_Any_Number,    !- Schedule Type Limits Name
    Through: 12/31,           !- Field 1
    For: AllDays,             !- Field 2
    Until: 24:00,             !- Field 3
    4;                        !- Field 4

MATERIAL,                 
    MaterialsDB Mur inner insulation_M0,    !- Name
    MediumSmooth,             !- Roughness
    0.01,                     !- Thickness
    0.58,                     !- Conductivity
    1200.0,                   !- Density
    900.0,                    !- Specific Heat
    0.9,                      !- Thermal Absorptance
    0.7,                      !- Solar Absorptance
    0.7;                      !- Visible Absorptance

MATERIAL,                 
    MaterialsDB Mur inner insulation_M1,    !- Name
    MediumSmooth,             !- Roughness
    0.04,                     !- Thickness
    0.47,                     !- Conductivity
    1200.0,                   !- Density
    900.0,                    !- Specific Heat
    0.9,                      !- Thermal Absorptance
    0.7,                      !- Solar Absorptance
    0.7;                      !- Visible Absorptance

MATERIAL,                 
    MaterialsDB Mur inner insulation_M2,    !- Name
    MediumSmooth,             !- Roughness
    0.0005,                   !- Thickness
    0.2,                      !- Conductivity
    1000.0,                   !- Density
    1400.4,                   !- Specific Heat
    0.9,                      !- Thermal Absorptance
    0.7,                      !- Solar Absorptance
    0.7;                      !- Visible Absorptance

MATERIAL,                 
    MaterialsDB Mur inner insulation_M3,    !- Name
    MediumSmooth,             !- Roughness
    0.06,                     !- Thickness
    0.044,                    !- Conductivity
    15.0,                     !- Density
    601.2,                    !- Specific Heat
    0.9,                      !- Thermal Absorptance
    0.7,                      !- Solar Absorptance
    0.7;                      !- Visible Absorptance

MATERIAL,                 
    MaterialsDB Mur inner insulation_M4,    !- Name
    MediumSmooth,             !- Roughness
    0.15,                     !- Thickness
    0.7,                      !- Conductivity
    1200.0,                   !- Density
    1100.0,                   !- Specific Heat
    0.9,                      !- Thermal Absorptance
    0.7,                      !- Solar Absorptance
    0.7;                      !- Visible Absorptance

MATERIAL,                 
    MaterialsDB Mur inner insulation_M5,    !- Name
    MediumSmooth,             !- Roughness
    0.02,                     !- Thickness
    0.87,                     !- Conductivity
    1800.0,                   !- Density
    1101.6,                   !- Specific Heat
    0.9,                      !- Thermal Absorptance
    0.7,                      !- Solar Absorptance
    0.7;                      !- Visible Absorptance

MATERIAL,                 
    MaterialsDB Mur inner insulation_M6,    !- Name
    MediumSmooth,             !- Roughness
    0.0003,                   !- Thickness
    0.2,                      !- Conductivity
    1100.0,                   !- Density
    1400.0,                   !- Specific Heat
    0.9,                      !- Thermal Absorptance
    0.7,                      !- Solar Absorptance
    0.7;                      !- Visible Absorptance

MATERIAL,                 
    MaterialsDB W 12 2_M0,    !- Name
    MediumSmooth,             !- Roughness
    0.2,                      !- Thickness
    2.3,                      !- Conductivity
    2300.0,                   !- Density
    1000.0,                   !- Specific Heat
    0.9,                      !- Thermal Absorptance
    0.7,                      !- Solar Absorptance
    0.7;                      !- Visible Absorptance

MATERIAL,                 
    MaterialsDB W 12 2_M1,    !- Name
    MediumSmooth,             !- Roughness
    0.16,                     !- Thickness
    0.036,                    !- Conductivity
    60.0,                     !- Density
    601.2,                    !- Specific Heat
    0.9,                      !- Thermal Absorptance
    0.7,                      !- Solar Absorptance
    0.7;                      !- Visible Absorptance

MATERIAL,                 
    MaterialsDB W 12 2_M2,    !- Name
    MediumSmooth,             !- Roughness
    0.05,                     !- Thickness
    0.025,                    !- Conductivity
    1.23,                     !- Density
    1000.8,                   !- Specific Heat
    0.9,                      !- Thermal Absorptance
    0.7,                      !- Solar Absorptance
    0.7;                      !- Visible Absorptance

MATERIAL,                 
    MaterialsDB W 12 2_M3,    !- Name
    MediumSmooth,             !- Roughness
    0.05,                     !- Thickness
    2.3,                      !- Conductivity
    2300.0,                   !- Density
    1000.0,                   !- Specific Heat
    0.9,                      !- Thermal Absorptance
    0.7,                      !- Solar Absorptance
    0.7;                      !- Visible Absorptance

MATERIAL,                 
    LesosaiBTK B 1_M0,        !- Name
    MediumSmooth,             !- Roughness
    0.01,                     !- Thickness
    1.3,                      !- Conductivity
    2300.0,                   !- Density
    838.8,                    !- Specific Heat
    0.9,                      !- Thermal Absorptance
    0.7,                      !- Solar Absorptance
    0.7;                      !- Visible Absorptance

MATERIAL,                 
    LesosaiBTK B 1_M1,        !- Name
    MediumSmooth,             !- Roughness
    0.05,                     !- Thickness
    0.85,                     !- Conductivity
    1200.0,                   !- Density
    1000.0,                   !- Specific Heat
    0.9,                      !- Thermal Absorptance
    0.7,                      !- Solar Absorptance
    0.7;                      !- Visible Absorptance

MATERIAL,                 
    LesosaiBTK B 1_M2,        !- Name
    MediumSmooth,             !- Roughness
    0.0001,                   !- Thickness
    0.2,                      !- Conductivity
    960.0,                    !- Density
    1400.0,                   !- Specific Heat
    0.9,                      !- Thermal Absorptance
    0.7,                      !- Solar Absorptance
    0.7;                      !- Visible Absorptance

MATERIAL,                 
    LesosaiBTK B 1_M3,        !- Name
    MediumSmooth,             !- Roughness
    0.05,                     !- Thickness
    0.03,                     !- Conductivity
    50.0,                     !- Density
    1400.0,                   !- Specific Heat
    0.9,                      !- Thermal Absorptance
    0.7,                      !- Solar Absorptance
    0.7;                      !- Visible Absorptance

MATERIAL,                 
    LesosaiBTK B 1_M4,        !- Name
    MediumSmooth,             !- Roughness
    0.1,                      !- Thickness
    2.3,                      !- Conductivity
    2300.0,                   !- Density
    1000.0,                   !- Specific Heat
    0.9,                      !- Thermal Absorptance
    0.7,                      !- Solar Absorptance
    0.7;                      !- Visible Absorptance

WINDOWMATERIAL:SIMPLEGLAZINGSYSTEM,
    WindowMaterialU1.10G0.70,    !- Name
    1.1,                      !- UFactor
    0.7;                      !- Solar Heat Gain Coefficient

CONSTRUCTION,             
    MaterialsDB Mur inner insulation,    !- Name
    MaterialsDB Mur inner insulation_M0,    !- Outside Layer
    MaterialsDB Mur inner insulation_M1,    !- Layer 2
    MaterialsDB Mur inner insulation_M2,    !- Layer 3
    MaterialsDB Mur inner insulation_M3,    !- Layer 4
    MaterialsDB Mur inner insulation_M4,    !- Layer 5
    MaterialsDB Mur inner insulation_M5,    !- Layer 6
    MaterialsDB Mur inner insulation_M6;    !- Layer 7

CONSTRUCTION,             
    MaterialsDB W 12 2,       !- Name
    MaterialsDB W 12 2_M0,    !- Outside Layer
    MaterialsDB W 12 2_M1,    !- Layer 2
    MaterialsDB W 12 2_M2,    !- Layer 3
    MaterialsDB W 12 2_M3;    !- Layer 4

CONSTRUCTION,             
    LesosaiBTK B 1,           !- Name
    LesosaiBTK B 1_M0,        !- Outside Layer
    LesosaiBTK B 1_M1,        !- Layer 2
    LesosaiBTK B 1_M2,        !- Layer 3
    LesosaiBTK B 1_M3,        !- Layer 4
    LesosaiBTK B 1_M4;        !- Layer 5

CONSTRUCTION,             
    WindowConstructionU1.10G0.70,    !- Name
    WindowMaterialU1.10G0.70;    !- Outside Layer

GlobalGeometryRules,      
    LowerLeftCorner,          !- Starting Vertex Position
    CounterClockWise,         !- Vertex Entry Direction
    Relative;                 !- Coordinate System

ZONE,                     
    Zone11466,                !- Name
    0,                        !- Direction of Relative North
    0,                        !- X Origin
    0,                        !- Y Origin
    0,                        !- Z Origin
    1,                        !- Type
    1,                        !- Multiplier
    autocalculate,            !- Ceiling Height
    autocalculate,            !- Volume
    autocalculate,            !- Floor Area
    ,                         !- Zone Inside Convection Algorithm
    ,                         !- Zone Outside Convection Algorithm
    Yes;                      !- Part of Total Floor Area

WALL:DETAILED,            
    Wall11459,                !- Name
    MaterialsDB Mur inner insulation,    !- Construction Name
    Zone11466,                !- Zone Name
    Outdoors,                 !- Outside Boundary Condition
    ,                         !- Outside Boundary Condition Object
    SunExposed,               !- Sun Exposure
    WindExposed,              !- Wind Exposure
    autocalculate,            !- View Factor to Ground
    4,                        !- Number of Vertices
    -144.3623352050781,       !- Vertex 1 Xcoordinate
    -84.62528991699219,       !- Vertex 1 Ycoordinate
    27.43999938964845,        !- Vertex 1 Zcoordinate
    -163.7084045410156,       !- Vertex 2 Xcoordinate
    -84.62528991699219,       !- Vertex 2 Ycoordinate
    27.43999938964845,        !- Vertex 2 Zcoordinate
    -163.7084045410156,       !- Vertex 3 Xcoordinate
    -84.62528991699219,       !- Vertex 3 Ycoordinate
    20.579999542236337,       !- Vertex 3 Zcoordinate
    -144.3623352050781,       !- Vertex 4 Xcoordinate
    -84.62528991699219,       !- Vertex 4 Ycoordinate
    20.579999542236337;       !- Vertex 4 Zcoordinate

WALL:DETAILED,            
    Wall11433,                !- Name
    MaterialsDB Mur inner insulation,    !- Construction Name
    Zone11466,                !- Zone Name
    Outdoors,                 !- Outside Boundary Condition
    ,                         !- Outside Boundary Condition Object
    SunExposed,               !- Sun Exposure
    WindExposed,              !- Wind Exposure
    autocalculate,            !- View Factor to Ground
    4,                        !- Number of Vertices
    -163.7084045410156,       !- Vertex 1 Xcoordinate
    -84.62528991699219,       !- Vertex 1 Ycoordinate
    20.579999542236337,       !- Vertex 1 Zcoordinate
    -163.7084045410156,       !- Vertex 2 Xcoordinate
    -46.04636001586913,       !- Vertex 2 Ycoordinate
    20.579999542236337,       !- Vertex 2 Zcoordinate
    -163.7084045410156,       !- Vertex 3 Xcoordinate
    -46.04636001586913,       !- Vertex 3 Ycoordinate
    13.719999694824224,       !- Vertex 3 Zcoordinate
    -163.7084045410156,       !- Vertex 4 Xcoordinate
    -84.62528991699219,       !- Vertex 4 Ycoordinate
    13.719999694824224;       !- Vertex 4 Zcoordinate

WALL:DETAILED,            
    Wall11434,                !- Name
    MaterialsDB Mur inner insulation,    !- Construction Name
    Zone11466,                !- Zone Name
    Outdoors,                 !- Outside Boundary Condition
    ,                         !- Outside Boundary Condition Object
    SunExposed,               !- Sun Exposure
    WindExposed,              !- Wind Exposure
    autocalculate,            !- View Factor to Ground
    4,                        !- Number of Vertices
    -163.7084045410156,       !- Vertex 1 Xcoordinate
    -84.62528991699219,       !- Vertex 1 Ycoordinate
    27.43999938964845,        !- Vertex 1 Zcoordinate
    -163.7084045410156,       !- Vertex 2 Xcoordinate
    -84.62528991699219,       !- Vertex 2 Ycoordinate
    34.29999923706056,        !- Vertex 2 Zcoordinate
    -163.7084045410156,       !- Vertex 3 Xcoordinate
    -46.04636001586913,       !- Vertex 3 Ycoordinate
    34.29999923706056,        !- Vertex 3 Zcoordinate
    -163.7084045410156,       !- Vertex 4 Xcoordinate
    -46.04636001586913,       !- Vertex 4 Ycoordinate
    27.43999938964845;        !- Vertex 4 Zcoordinate

WALL:DETAILED,            
    Wall11460V1,              !- Name
    MaterialsDB Mur inner insulation,    !- Construction Name
    Zone11466,                !- Zone Name
    Outdoors,                 !- Outside Boundary Condition
    ,                         !- Outside Boundary Condition Object
    SunExposed,               !- Sun Exposure
    WindExposed,              !- Wind Exposure
    autocalculate,            !- View Factor to Ground
    4,                        !- Number of Vertices
    -163.708404541016,        !- Vertex 1 Xcoordinate
    -84.6252899169922,        !- Vertex 1 Ycoordinate
    34.2999992370606,         !- Vertex 1 Zcoordinate
    -163.708404541016,        !- Vertex 2 Xcoordinate
    -84.6252899169922,        !- Vertex 2 Ycoordinate
    27.4399993896484,         !- Vertex 2 Zcoordinate
    -149.903747558594,        !- Vertex 3 Xcoordinate
    -84.6252899169922,        !- Vertex 3 Ycoordinate
    27.4399993896484,         !- Vertex 3 Zcoordinate
    -149.903747558594,        !- Vertex 4 Xcoordinate
    -84.6252899169922,        !- Vertex 4 Ycoordinate
    34.2999992370606;         !- Vertex 4 Zcoordinate

WALL:DETAILED,            
    Wall11460V2,              !- Name
    MaterialsDB Mur inner insulation,    !- Construction Name
    Zone11466,                !- Zone Name
    Outdoors,                 !- Outside Boundary Condition
    ,                         !- Outside Boundary Condition Object
    SunExposed,               !- Sun Exposure
    WindExposed,              !- Wind Exposure
    autocalculate,            !- View Factor to Ground
    4,                        !- Number of Vertices
    -149.903747558594,        !- Vertex 1 Xcoordinate
    -84.6252899169922,        !- Vertex 1 Ycoordinate
    28.0,                     !- Vertex 1 Zcoordinate
    -149.903747558594,        !- Vertex 2 Xcoordinate
    -84.6252899169922,        !- Vertex 2 Ycoordinate
    27.4399993896484,         !- Vertex 2 Zcoordinate
    -144.362335205078,        !- Vertex 3 Xcoordinate
    -84.6252899169922,        !- Vertex 3 Ycoordinate
    27.4399993896484,         !- Vertex 3 Zcoordinate
    -144.362335205078,        !- Vertex 4 Xcoordinate
    -84.6252899169922,        !- Vertex 4 Ycoordinate
    28.0;                     !- Vertex 4 Zcoordinate

WALL:DETAILED,            
    Wall11432,                !- Name
    MaterialsDB Mur inner insulation,    !- Construction Name
    Zone11466,                !- Zone Name
    Outdoors,                 !- Outside Boundary Condition
    ,                         !- Outside Boundary Condition Object
    SunExposed,               !- Sun Exposure
    WindExposed,              !- Wind Exposure
    autocalculate,            !- View Factor to Ground
    4,                        !- Number of Vertices
    -163.7084045410156,       !- Vertex 1 Xcoordinate
    -84.62528991699219,       !- Vertex 1 Ycoordinate
    6.859999847412112,        !- Vertex 1 Zcoordinate
    -163.7084045410156,       !- Vertex 2 Xcoordinate
    -46.04636001586913,       !- Vertex 2 Ycoordinate
    6.859999847412112,        !- Vertex 2 Zcoordinate
    -163.7084045410156,       !- Vertex 3 Xcoordinate
    -46.04636001586913,       !- Vertex 3 Ycoordinate
    0.0,                      !- Vertex 3 Zcoordinate
    -163.7084045410156,       !- Vertex 4 Xcoordinate
    -84.62528991699219,       !- Vertex 4 Ycoordinate
    0.0;                      !- Vertex 4 Zcoordinate

WALL:DETAILED,            
    Wall11421,                !- Name
    MaterialsDB Mur inner insulation,    !- Construction Name
    Zone11466,                !- Zone Name
    Outdoors,                 !- Outside Boundary Condition
    ,                         !- Outside Boundary Condition Object
    SunExposed,               !- Sun Exposure
    WindExposed,              !- Wind Exposure
    autocalculate,            !- View Factor to Ground
    4,                        !- Number of Vertices
    -144.3623352050781,       !- Vertex 1 Xcoordinate
    -46.04636001586913,       !- Vertex 1 Ycoordinate
    27.43999938964845,        !- Vertex 1 Zcoordinate
    -144.3623352050781,       !- Vertex 2 Xcoordinate
    -46.04636001586913,       !- Vertex 2 Ycoordinate
    20.579999542236337,       !- Vertex 2 Zcoordinate
    -163.7084045410156,       !- Vertex 3 Xcoordinate
    -46.04636001586913,       !- Vertex 3 Ycoordinate
    20.579999542236337,       !- Vertex 3 Zcoordinate
    -163.7084045410156,       !- Vertex 4 Xcoordinate
    -46.04636001586913,       !- Vertex 4 Ycoordinate
    27.43999938964845;        !- Vertex 4 Zcoordinate

WALL:DETAILED,            
    Wall11456,                !- Name
    MaterialsDB Mur inner insulation,    !- Construction Name
    Zone11466,                !- Zone Name
    Outdoors,                 !- Outside Boundary Condition
    ,                         !- Outside Boundary Condition Object
    SunExposed,               !- Sun Exposure
    WindExposed,              !- Wind Exposure
    autocalculate,            !- View Factor to Ground
    4,                        !- Number of Vertices
    -163.7084045410156,       !- Vertex 1 Xcoordinate
    -84.62528991699219,       !- Vertex 1 Ycoordinate
    6.859999847412112,        !- Vertex 1 Zcoordinate
    -163.7084045410156,       !- Vertex 2 Xcoordinate
    -84.62528991699219,       !- Vertex 2 Ycoordinate
    0.0,                      !- Vertex 2 Zcoordinate
    -144.3623352050781,       !- Vertex 3 Xcoordinate
    -84.62528991699219,       !- Vertex 3 Ycoordinate
    0.0,                      !- Vertex 3 Zcoordinate
    -144.3623352050781,       !- Vertex 4 Xcoordinate
    -84.62528991699219,       !- Vertex 4 Ycoordinate
    6.859999847412112;        !- Vertex 4 Zcoordinate

WALL:DETAILED,            
    Wall11422,                !- Name
    MaterialsDB Mur inner insulation,    !- Construction Name
    Zone11466,                !- Zone Name
    Outdoors,                 !- Outside Boundary Condition
    ,                         !- Outside Boundary Condition Object
    SunExposed,               !- Sun Exposure
    WindExposed,              !- Wind Exposure
    autocalculate,            !- View Factor to Ground
    4,                        !- Number of Vertices
    -163.7084045410156,       !- Vertex 1 Xcoordinate
    -46.04636001586913,       !- Vertex 1 Ycoordinate
    6.859999847412112,        !- Vertex 1 Zcoordinate
    -163.7084045410156,       !- Vertex 2 Xcoordinate
    -46.04636001586913,       !- Vertex 2 Ycoordinate
    13.719999694824224,       !- Vertex 2 Zcoordinate
    -144.3623352050781,       !- Vertex 3 Xcoordinate
    -46.04636001586913,       !- Vertex 3 Ycoordinate
    13.719999694824226,       !- Vertex 3 Zcoordinate
    -144.3623352050781,       !- Vertex 4 Xcoordinate
    -46.04636001586913,       !- Vertex 4 Ycoordinate
    6.859999847412112;        !- Vertex 4 Zcoordinate

WALL:DETAILED,            
    Wall11457,                !- Name
    MaterialsDB Mur inner insulation,    !- Construction Name
    Zone11466,                !- Zone Name
    Outdoors,                 !- Outside Boundary Condition
    ,                         !- Outside Boundary Condition Object
    SunExposed,               !- Sun Exposure
    WindExposed,              !- Wind Exposure
    autocalculate,            !- View Factor to Ground
    4,                        !- Number of Vertices
    -163.7084045410156,       !- Vertex 1 Xcoordinate
    -84.62528991699219,       !- Vertex 1 Ycoordinate
    20.579999542236337,       !- Vertex 1 Zcoordinate
    -163.7084045410156,       !- Vertex 2 Xcoordinate
    -84.62528991699219,       !- Vertex 2 Ycoordinate
    13.719999694824224,       !- Vertex 2 Zcoordinate
    -144.3623352050781,       !- Vertex 3 Xcoordinate
    -84.62528991699219,       !- Vertex 3 Ycoordinate
    13.719999694824226,       !- Vertex 3 Zcoordinate
    -144.3623352050781,       !- Vertex 4 Xcoordinate
    -84.62528991699219,       !- Vertex 4 Ycoordinate
    20.579999542236337;       !- Vertex 4 Zcoordinate

WALL:DETAILED,            
    Wall11458,                !- Name
    MaterialsDB Mur inner insulation,    !- Construction Name
    Zone11466,                !- Zone Name
    Outdoors,                 !- Outside Boundary Condition
    ,                         !- Outside Boundary Condition Object
    SunExposed,               !- Sun Exposure
    WindExposed,              !- Wind Exposure
    autocalculate,            !- View Factor to Ground
    4,                        !- Number of Vertices
    -144.3623352050781,       !- Vertex 1 Xcoordinate
    -84.62528991699219,       !- Vertex 1 Ycoordinate
    13.719999694824226,       !- Vertex 1 Zcoordinate
    -163.7084045410156,       !- Vertex 2 Xcoordinate
    -84.62528991699219,       !- Vertex 2 Ycoordinate
    13.719999694824224,       !- Vertex 2 Zcoordinate
    -163.7084045410156,       !- Vertex 3 Xcoordinate
    -84.62528991699219,       !- Vertex 3 Ycoordinate
    6.859999847412112,        !- Vertex 3 Zcoordinate
    -144.3623352050781,       !- Vertex 4 Xcoordinate
    -84.62528991699219,       !- Vertex 4 Ycoordinate
    6.859999847412112;        !- Vertex 4 Zcoordinate

WALL:DETAILED,            
    Wall11425,                !- Name
    MaterialsDB Mur inner insulation,    !- Construction Name
    Zone11466,                !- Zone Name
    Outdoors,                 !- Outside Boundary Condition
    ,                         !- Outside Boundary Condition Object
    SunExposed,               !- Sun Exposure