
Version,                  
    8.2;                      !- Version Identifier

Building,                 
    HPZ_21Zones_16,           !- Name
    27.0,                     !- North Axis
    Suburbs,                  !- Terrain
    0.1,                      !- Loads Convergence Tolerance Value
    0.4,                      !- Temperature Convergence Tolerance Value
    FullExterior,             !- Solar Distribution
    200,                      !- Maximum Number of Warmup Days
    6;                        !- Minimum Number of Warmup Days

SurfaceConvectionAlgorithm:Inside,
    TARP;                     !- Algorithm

SurfaceConvectionAlgorithm:Outside,
    DOE-2;                    !- Algorithm

HeatBalanceAlgorithm,     
    ConductionTransferFunction,    !- Algorithm
    200.0;                    !- Surface Temperature Upper Limit

Timestep,                 
    1;                        !- Number of Timesteps per Hour

RunPeriod,                
    RunPeriod_WholeYear,      !- Name
    1,                        !- Begin Month
    1,                        !- Begin Day of Month
    12,                       !- End Month
    31,                       !- End Day of Month
    UseWeatherFile,           !- Day of Week for Start Day
    Yes,                      !- Use Weather File Holidays and Special Days
    Yes,                      !- Use Weather File Daylight Saving Period
    No,                       !- Apply Weekend Holiday Rule
    Yes,                      !- Use Weather File Rain Indicators
    Yes;                      !- Use Weather File Snow Indicators

Site:GroundTemperature:BuildingSurface,
    6.0,                      !- January Ground Temperature
    4.3,                      !- February Ground Temperature
    3.6,                      !- March Ground Temperature
    4.3,                      !- April Ground Temperature
    6.0,                      !- May Ground Temperature
    8.5,                      !- June Ground Temperature
    10.9,                     !- July Ground Temperature
    12.6,                     !- August Ground Temperature
    13.3,                     !- September Ground Temperature
    12.6,                     !- October Ground Temperature
    10.9,                     !- November Ground Temperature
    8.5;                      !- December Ground Temperature

ScheduleTypeLimits,       
    Fraction,                 !- Name
    0,                        !- Lower Limit Value
    1,                        !- Upper Limit Value
    Continuous,               !- Numeric Type
    Dimensionless;            !- Unit Type

ScheduleTypeLimits,       
    Availability,             !- Name
    0,                        !- Lower Limit Value
    1,                        !- Upper Limit Value
    Discrete,                 !- Numeric Type
    Dimensionless;            !- Unit Type

ScheduleTypeLimits,       
    AnyNumber,                !- Name
    ,                         !- Lower Limit Value
    ,                         !- Upper Limit Value
    ,                         !- Numeric Type
    Dimensionless;            !- Unit Type

ScheduleTypeLimits,       
    Temperature,              !- Name
    ,                         !- Lower Limit Value
    ,                         !- Upper Limit Value
    Continuous,               !- Numeric Type
    Temperature;              !- Unit Type

Schedule:Day:Hourly,      
    Sched_Fraction_Residential_Occupation_Day100,    !- Name
    Fraction,                 !- Schedule Type Limits Name
    1.0,                      !- Hour 1
    1.0,                      !- Hour 2
    1.0,                      !- Hour 3
    1.0,                      !- Hour 4
    1.0,                      !- Hour 5
    1.0,                      !- Hour 6
    0.8,                      !- Hour 7
    0.6,                      !- Hour 8
    0.4,                      !- Hour 9
    0.4,                      !- Hour 10
    0.4,                      !- Hour 11
    0.6,                      !- Hour 12
    0.8,                      !- Hour 13
    0.6,                      !- Hour 14
    0.4,                      !- Hour 15
    0.4,                      !- Hour 16
    0.6,                      !- Hour 17
    0.8,                      !- Hour 18
    0.8,                      !- Hour 19
    0.8,                      !- Hour 20
    0.8,                      !- Hour 21
    1.0,                      !- Hour 22
    1.0,                      !- Hour 23
    1.0;                      !- Hour 24

Schedule:Day:Hourly,      
    Sched_Fraction_Residential_Occupation_Day080,    !- Name
    Fraction,                 !- Schedule Type Limits Name
    0.8,                      !- Hour 1
    0.8,                      !- Hour 2
    0.8,                      !- Hour 3
    0.8,                      !- Hour 4
    0.8,                      !- Hour 5
    0.8,                      !- Hour 6
    0.64,                     !- Hour 7
    0.48,                     !- Hour 8
    0.32,                     !- Hour 9
    0.32,                     !- Hour 10
    0.32,                     !- Hour 11
    0.48,                     !- Hour 12
    0.64,                     !- Hour 13
    0.48,                     !- Hour 14
    0.32,                     !- Hour 15
    0.32,                     !- Hour 16
    0.48,                     !- Hour 17
    0.64,                     !- Hour 18
    0.64,                     !- Hour 19
    0.64,                     !- Hour 20
    0.64,                     !- Hour 21
    0.8,                      !- Hour 22
    0.8,                      !- Hour 23
    0.8;                      !- Hour 24

Schedule:Day:Hourly,      
    Sched_Fraction_Residential_Occupation_Day060,    !- Name
    Fraction,                 !- Schedule Type Limits Name
    0.6,                      !- Hour 1
    0.6,                      !- Hour 2
    0.6,                      !- Hour 3
    0.6,                      !- Hour 4
    0.6,                      !- Hour 5
    0.6,                      !- Hour 6
    0.48,                     !- Hour 7
    0.36,                     !- Hour 8
    0.24,                     !- Hour 9
    0.24,                     !- Hour 10
    0.24,                     !- Hour 11
    0.36,                     !- Hour 12
    0.48,                     !- Hour 13
    0.36,                     !- Hour 14
    0.24,                     !- Hour 15
    0.24,                     !- Hour 16
    0.36,                     !- Hour 17
    0.48,                     !- Hour 18
    0.48,                     !- Hour 19
    0.48,                     !- Hour 20
    0.48,                     !- Hour 21
    0.6,                      !- Hour 22
    0.6,                      !- Hour 23
    0.6;                      !- Hour 24

Schedule:Day:Hourly,      
    Sched_Fraction_Residential_LightsElEq_Day100,    !- Name
    Fraction,                 !- Schedule Type Limits Name
    0.1,                      !- Hour 1
    0.1,                      !- Hour 2
    0.1,                      !- Hour 3
    0.1,                      !- Hour 4
    0.1,                      !- Hour 5
    0.1,                      !- Hour 6
    0.5,                      !- Hour 7
    1.0,                      !- Hour 8
    0.5,                      !- Hour 9
    0.5,                      !- Hour 10
    0.5,                      !- Hour 11
    1.0,                      !- Hour 12
    1.0,                      !- Hour 13
    0.5,                      !- Hour 14
    0.5,                      !- Hour 15
    0.5,                      !- Hour 16
    1.0,                      !- Hour 17
    1.0,                      !- Hour 18
    1.0,                      !- Hour 19
    1.0,                      !- Hour 20
    0.5,                      !- Hour 21
    0.5,                      !- Hour 22
    0.5,                      !- Hour 23
    0.1;                      !- Hour 24

Schedule:Day:Hourly,      
    Sched_Fraction_Residential_LightsElEq_Day080,    !- Name
    Fraction,                 !- Schedule Type Limits Name
    0.1,                      !- Hour 1
    0.1,                      !- Hour 2
    0.1,                      !- Hour 3
    0.1,                      !- Hour 4
    0.1,                      !- Hour 5
    0.1,                      !- Hour 6
    0.4,                      !- Hour 7
    0.8,                      !- Hour 8
    0.4,                      !- Hour 9
    0.4,                      !- Hour 10
    0.4,                      !- Hour 11
    0.8,                      !- Hour 12
    0.8,                      !- Hour 13
    0.4,                      !- Hour 14
    0.4,                      !- Hour 15
    0.4,                      !- Hour 16
    0.8,                      !- Hour 17
    0.8,                      !- Hour 18
    0.8,                      !- Hour 19
    0.8,                      !- Hour 20
    0.4,                      !- Hour 21
    0.4,                      !- Hour 22
    0.4,                      !- Hour 23
    0.1;                      !- Hour 24

Schedule:Day:Hourly,      
    Sched_Fraction_Residential_LightsElEq_Day060,    !- Name
    Fraction,                 !- Schedule Type Limits Name
    0.1,                      !- Hour 1
    0.1,                      !- Hour 2
    0.1,                      !- Hour 3
    0.1,                      !- Hour 4
    0.1,                      !- Hour 5
    0.1,                      !- Hour 6
    0.3,                      !- Hour 7
    0.6,                      !- Hour 8
    0.3,                      !- Hour 9
    0.3,                      !- Hour 10
    0.3,                      !- Hour 11
    0.6,                      !- Hour 12
    0.6,                      !- Hour 13
    0.3,                      !- Hour 14
    0.3,                      !- Hour 15
    0.3,                      !- Hour 16
    0.6,                      !- Hour 17
    0.6,                      !- Hour 18
    0.6,                      !- Hour 19
    0.6,                      !- Hour 20
    0.3,                      !- Hour 21
    0.3,                      !- Hour 22
    0.3,                      !- Hour 23
    0.1;                      !- Hour 24

Schedule:Day:Hourly,      
    Sched_Fraction_Office_Occupation_Day100,    !- Name
    Fraction,                 !- Schedule Type Limits Name
    0.0,                      !- Hour 1
    0.0,                      !- Hour 2
    0.0,                      !- Hour 3
    0.0,                      !- Hour 4
    0.0,                      !- Hour 5
    0.0,                      !- Hour 6
    0.0,                      !- Hour 7
    0.2,                      !- Hour 8
    0.4,                      !- Hour 9
    0.6,                      !- Hour 10
    0.8,                      !- Hour 11
    0.8,                      !- Hour 12
    0.4,                      !- Hour 13
    0.6,                      !- Hour 14
    0.8,                      !- Hour 15
    0.8,                      !- Hour 16
    0.4,                      !- Hour 17
    0.2,                      !- Hour 18
    0.0,                      !- Hour 19
    0.0,                      !- Hour 20
    0.0,                      !- Hour 21
    0.0,                      !- Hour 22
    0.0,                      !- Hour 23
    0.0;                      !- Hour 24

Schedule:Day:Hourly,      
    Sched_Fraction_Office_Occupation_Day080,    !- Name
    Fraction,                 !- Schedule Type Limits Name
    0.0,                      !- Hour 1
    0.0,                      !- Hour 2
    0.0,                      !- Hour 3
    0.0,                      !- Hour 4
    0.0,                      !- Hour 5
    0.0,                      !- Hour 6
    0.0,                      !- Hour 7
    0.16,                     !- Hour 8
    0.32,                     !- Hour 9
    0.48,                     !- Hour 10
    0.64,                     !- Hour 11
    0.64,                     !- Hour 12
    0.32,                     !- Hour 13
    0.48,                     !- Hour 14
    0.64,                     !- Hour 15
    0.64,                     !- Hour 16
    0.32,                     !- Hour 17
    0.16,                     !- Hour 18
    0.0,                      !- Hour 19
    0.0,                      !- Hour 20
    0.0,                      !- Hour 21
    0.0,                      !- Hour 22
    0.0,                      !- Hour 23
    0.0;                      !- Hour 24

Schedule:Day:Hourly,      
    Sched_Fraction_Office_Occupation_Day060,    !- Name
    Fraction,                 !- Schedule Type Limits Name
    0.0,                      !- Hour 1
    0.0,                      !- Hour 2
    0.0,                      !- Hour 3
    0.0,                      !- Hour 4
    0.0,                      !- Hour 5
    0.0,                      !- Hour 6
    0.0,                      !- Hour 7
    0.12,                     !- Hour 8
    0.24,                     !- Hour 9
    0.36,                     !- Hour 10
    0.48,                     !- Hour 11
    0.48,                     !- Hour 12
    0.24,                     !- Hour 13
    0.36,                     !- Hour 14
    0.48,                     !- Hour 15
    0.48,                     !- Hour 16
    0.24,                     !- Hour 17
    0.12,                     !- Hour 18
    0.0,                      !- Hour 19
    0.0,                      !- Hour 20
    0.0,                      !- Hour 21
    0.0,                      !- Hour 22
    0.0,                      !- Hour 23
    0.0;                      !- Hour 24

Schedule:Day:Hourly,      
    Sched_Fraction_Office_LightsElEq_Day100,    !- Name
    Fraction,                 !- Schedule Type Limits Name
    0.1,                      !- Hour 1
    0.1,                      !- Hour 2
    0.1,                      !- Hour 3
    0.1,                      !- Hour 4
    0.1,                      !- Hour 5
    0.1,                      !- Hour 6
    0.1,                      !- Hour 7
    0.2,                      !- Hour 8
    0.4,                      !- Hour 9
    0.6,                      !- Hour 10
    0.8,                      !- Hour 11
    0.8,                      !- Hour 12
    0.4,                      !- Hour 13
    0.6,                      !- Hour 14
    0.8,                      !- Hour 15
    0.8,                      !- Hour 16
    0.4,                      !- Hour 17
    0.2,                      !- Hour 18
    0.1,                      !- Hour 19
    0.1,                      !- Hour 20
    0.1,                      !- Hour 21
    0.1,                      !- Hour 22
    0.1,                      !- Hour 23
    0.1;                      !- Hour 24

Schedule:Day:Hourly,      
    Sched_Fraction_Office_LightsElEq_Day080,    !- Name
    Fraction,                 !- Schedule Type Limits Name
    0.1,                      !- Hour 1
    0.1,                      !- Hour 2
    0.1,                      !- Hour 3
    0.1,                      !- Hour 4
    0.1,                      !- Hour 5
    0.1,                      !- Hour 6
    0.1,                      !- Hour 7
    0.16,                     !- Hour 8
    0.32,                     !- Hour 9
    0.48,                     !- Hour 10
    0.64,                     !- Hour 11
    0.64,                     !- Hour 12
    0.32,                     !- Hour 13
    0.48,                     !- Hour 14
    0.64,                     !- Hour 15
    0.64,                     !- Hour 16
    0.32,                     !- Hour 17
    0.16,                     !- Hour 18
    0.1,                      !- Hour 19
    0.1,                      !- Hour 20
    0.1,                      !- Hour 21
    0.1,                      !- Hour 22
    0.1,                      !- Hour 23
    0.1;                      !- Hour 24

Schedule:Day:Hourly,      
    Sched_Fraction_Office_LightsElEq_Day060,    !- Name
    Fraction,                 !- Schedule Type Limits Name
    0.1,                      !- Hour 1
    0.1,                      !- Hour 2
    0.1,                      !- Hour 3
    0.1,                      !- Hour 4
    0.1,                      !- Hour 5
    0.1,                      !- Hour 6
    0.1,                      !- Hour 7
    0.12,                     !- Hour 8
    0.24,                     !- Hour 9
    0.36,                     !- Hour 10
    0.48,                     !- Hour 11
    0.48,                     !- Hour 12
    0.24,                     !- Hour 13
    0.36,                     !- Hour 14
    0.48,                     !- Hour 15
    0.48,                     !- Hour 16
    0.24,                     !- Hour 17
    0.12,                     !- Hour 18
    0.1,                      !- Hour 19
    0.1,                      !- Hour 20
    0.1,                      !- Hour 21
    0.1,                      !- Hour 22
    0.1,                      !- Hour 23
    0.1;                      !- Hour 24

Schedule:Week:Compact,    
    Sched_Fraction_Residential_Occupation_Week100,    !- Name
    For AllDays,              !- DayType List 1
    Sched_Fraction_Residential_Occupation_Day100;    !- ScheduleDay Name 1

Schedule:Week:Compact,    
    Sched_Fraction_Residential_Occupation_Week080,    !- Name
    For AllDays,              !- DayType List 1
    Sched_Fraction_Residential_Occupation_Day080;    !- ScheduleDay Name 1

Schedule:Week:Compact,    
    Sched_Fraction_Residential_Occupation_Week060,    !- Name
    For AllDays,              !- DayType List 1
    Sched_Fraction_Residential_Occupation_Day060;    !- ScheduleDay Name 1

Schedule:Week:Compact,    
    Sched_Fraction_Residential_LightsElEq_Week100,    !- Name
    For AllDays,              !- DayType List 1
    Sched_Fraction_Residential_LightsElEq_Day100;    !- ScheduleDay Name 1

Schedule:Week:Compact,    
    Sched_Fraction_Residential_LightsElEq_Week080,    !- Name
    For AllDays,              !- DayType List 1
    Sched_Fraction_Residential_LightsElEq_Day080;    !- ScheduleDay Name 1

Schedule:Week:Compact,    
    Sched_Fraction_Residential_LightsElEq_Week060,    !- Name
    For AllDays,              !- DayType List 1
    Sched_Fraction_Residential_LightsElEq_Day060;    !- ScheduleDay Name 1

Schedule:Week:Compact,    
    Sched_Fraction_Office_Occupation_Week100,    !- Name
    For AllDays,              !- DayType List 1
    Sched_Fraction_Office_Occupation_Day100;    !- ScheduleDay Name 1

Schedule:Week:Compact,    
    Sched_Fraction_Office_Occupation_Week080,    !- Name
    For AllDays,              !- DayType List 1
    Sched_Fraction_Office_Occupation_Day080;    !- ScheduleDay Name 1

Schedule:Week:Compact,    
    Sched_Fraction_Office_Occupation_Week060,    !- Name
    For AllDays,              !- DayType List 1
    Sched_Fraction_Office_Occupation_Day060;    !- ScheduleDay Name 1

Schedule:Week:Compact,    
    Sched_Fraction_Office_LightsElEq_Week100,    !- Name
    For AllDays,              !- DayType List 1
    Sched_Fraction_Office_LightsElEq_Day100;    !- ScheduleDay Name 1

Schedule:Week:Compact,    
    Sched_Fraction_Office_LightsElEq_Week080,    !- Name
    For AllDays,              !- DayType List 1
    Sched_Fraction_Office_LightsElEq_Day080;    !- ScheduleDay Name 1

Schedule:Week:Compact,    
    Sched_Fraction_Office_LightsElEq_Week060,    !- Name
    For AllDays,              !- DayType List 1
    Sched_Fraction_Office_LightsElEq_Day060;    !- ScheduleDay Name 1

Schedule:Year,            
    Schedule_Fraction_Residential_Occupation,    !- Name
    Fraction,                 !- Schedule Type Limits Name
    Sched_Fraction_Residential_Occupation_Week080,    !- ScheduleWeek Name 1
    1,                        !- Start Month 1
    1,                        !- Start Day 1
    1,                        !- End Month 1
    31,                       !- End Day 1
    Sched_Fraction_Residential_Occupation_Week060,    !- ScheduleWeek Name 2
    2,                        !- Start Month 2
    1,                        !- Start Day 2
    2,                        !- End Month 2
    28,                       !- End Day 2
    Sched_Fraction_Residential_Occupation_Week100,    !- ScheduleWeek Name 3
    3,                        !- Start Month 3
    1,                        !- Start Day 3
    3,                        !- End Month 3
    31,                       !- End Day 3
    Sched_Fraction_Residential_Occupation_Week080,    !- ScheduleWeek Name 4
    4,                        !- Start Month 4
    1,                        !- Start Day 4
    4,                        !- End Month 4
    30,                       !- End Day 4
    Sched_Fraction_Residential_Occupation_Week060,    !- ScheduleWeek Name 5
    5,                        !- Start Month 5
    1,                        !- Start Day 5
    5,                        !- End Month 5
    31,                       !- End Day 5
    Sched_Fraction_Residential_Occupation_Week100,    !- ScheduleWeek Name 6
    6,                        !- Start Month 6
    1,                        !- Start Day 6
    6,                        !- End Month 6
    30,                       !- End Day 6
    Sched_Fraction_Residential_Occupation_Week060,    !- ScheduleWeek Name 7
    7,                        !- Start Month 7
    1,                        !- Start Day 7
    7,                        !- End Month 7
    31,                       !- End Day 7
    Sched_Fraction_Residential_Occupation_Week060,    !- ScheduleWeek Name 8
    8,                        !- Start Month 8
    1,                        !- Start Day 8
    8,                        !- End Month 8
    31,                       !- End Day 8
    Sched_Fraction_Residential_Occupation_Week100,    !- ScheduleWeek Name 9
    9,                        !- Start Month 9
    1,                        !- Start Day 9
    9,                        !- End Month 9
    30,                       !- End Day 9
    Sched_Fraction_Residential_Occupation_Week080,    !- ScheduleWeek Name 10
    10,                       !- Start Month 10
    1,                        !- Start Day 10
    10,                       !- End Month 10
    31,                       !- End Day 10
    Sched_Fraction_Residential_Occupation_Week100,    !- ScheduleWeek Name 11
    11,                       !- Start Month 11
    1,                        !- Start Day 11
    11,                       !- End Month 11
    30,                       !- End Day 11
    Sched_Fraction_Residential_Occupation_Week060,    !- ScheduleWeek Name 12
    12,                       !- Start Month 12
    1,                        !- Start Day 12
    12,                       !- End Month 12
    31;                       !- End Day 12

Schedule:Year,            
    Schedule_Fraction_Residential_LightsElEq,    !- Name
    Fraction,                 !- Schedule Type Limits Name
    Sched_Fraction_Residential_LightsElEq_Week080,    !- ScheduleWeek Name 1
    1,                        !- Start Month 1
    1,                        !- Start Day 1
    1,                        !- End Month 1
    31,                       !- End Day 1
    Sched_Fraction_Residential_LightsElEq_Week060,    !- ScheduleWeek Name 2
    2,                        !- Start Month 2
    1,                        !- Start Day 2
    2,                        !- End Month 2
    28,                       !- End Day 2
    Sched_Fraction_Residential_LightsElEq_Week100,    !- ScheduleWeek Name 3
    3,                        !- Start Month 3
    1,                        !- Start Day 3
    3,                        !- End Month 3
    31,                       !- End Day 3
    Sched_Fraction_Residential_LightsElEq_Week080,    !- ScheduleWeek Name 4
    4,                        !- Start Month 4
    1,                        !- Start Day 4
    4,                        !- End Month 4
    30,                       !- End Day 4
    Sched_Fraction_Residential_LightsElEq_Week060,    !- ScheduleWeek Name 5
    5,                        !- Start Month 5
    1,                        !- Start Day 5
    5,                        !- End Month 5
    31,                       !- End Day 5
    Sched_Fraction_Residential_LightsElEq_Week100,    !- ScheduleWeek Name 6
    6,                        !- Start Month 6
    1,                        !- Start Day 6
    6,                        !- End Month 6
    30,                       !- End Day 6
    Sched_Fraction_Residential_LightsElEq_Week060,    !- ScheduleWeek Name 7
    7,                        !- Start Month 7
    1,                        !- Start Day 7
    7,                        !- End Month 7
    31,                       !- End Day 7
    Sched_Fraction_Residential_LightsElEq_Week060,    !- ScheduleWeek Name 8
    8,                        !- Start Month 8
    1,                        !- Start Day 8
    8,                        !- End Month 8
    31,                       !- End Day 8
    Sched_Fraction_Residential_LightsElEq_Week100,    !- ScheduleWeek Name 9
    9,                        !- Start Month 9
    1,                        !- Start Day 9
    9,                        !- End Month 9
    30,                       !- End Day 9
    Sched_Fraction_Residential_LightsElEq_Week080,    !- ScheduleWeek Name 10
    10,                       !- Start Month 10
    1,                        !- Start Day 10
    10,                       !- End Month 10
    31,                       !- End Day 10
    Sched_Fraction_Residential_LightsElEq_Week100,    !- ScheduleWeek Name 11
    11,                       !- Start Month 11
    1,                        !- Start Day 11
    11,                       !- End Month 11
    30,                       !- End Day 11
    Sched_Fraction_Residential_LightsElEq_Week060,    !- ScheduleWeek Name 12
    12,                       !- Start Month 12
    1,                        !- Start Day 12
    12,                       !- End Month 12
    31;                       !- End Day 12

Schedule:Year,            
    Schedule_Fraction_Office_Occupation,    !- Name
    Fraction,                 !- Schedule Type Limits Name
    Sched_Fraction_Office_Occupation_Week080,    !- ScheduleWeek Name 1
    1,                        !- Start Month 1
    1,                        !- Start Day 1
    1,                        !- End Month 1
    31,                       !- End Day 1
    Sched_Fraction_Office_Occupation_Week060,    !- ScheduleWeek Name 2
    2,                        !- Start Month 2
    1,                        !- Start Day 2
    2,                        !- End Month 2
    28,                       !- End Day 2
    Sched_Fraction_Office_Occupation_Week100,    !- ScheduleWeek Name 3
    3,                        !- Start Month 3
    1,                        !- Start Day 3
    3,                        !- End Month 3
    31,                       !- End Day 3
    Sched_Fraction_Office_Occupation_Week080,    !- ScheduleWeek Name 4
    4,                        !- Start Month 4
    1,                        !- Start Day 4
    4,                        !- End Month 4
    30,                       !- End Day 4
    Sched_Fraction_Office_Occupation_Week060,    !- ScheduleWeek Name 5
    5,                        !- Start Month 5
    1,                        !- Start Day 5
    5,                        !- End Month 5
    31,                       !- End Day 5
    Sched_Fraction_Office_Occupation_Week100,    !- ScheduleWeek Name 6
    6,                        !- Start Month 6
    1,                        !- Start Day 6
    6,                        !- End Month 6
    30,                       !- End Day 6
    Sched_Fraction_Office_Occupation_Week060,    !- ScheduleWeek Name 7
    7,                        !- Start Month 7
    1,                        !- Start Day 7
    7,                        !- End Month 7
    31,                       !- End Day 7
    Sched_Fraction_Office_Occupation_Week060,    !- ScheduleWeek Name 8
    8,                        !- Start Month 8
    1,                        !- Start Day 8
    8,                        !- End Month 8
    31,                       !- End Day 8
    Sched_Fraction_Office_Occupation_Week100,    !- ScheduleWeek Name 9
    9,                        !- Start Month 9
    1,                        !- Start Day 9
    9,                        !- End Month 9
    30,                       !- End Day 9
    Sched_Fraction_Office_Occupation_Week080,    !- ScheduleWeek Name 10
    10,                       !- Start Month 10
    1,                        !- Start Day 10
    10,                       !- End Month 10
    31,                       !- End Day 10
    Sched_Fraction_Office_Occupation_Week100,    !- ScheduleWeek Name 11
    11,                       !- Start Month 11
    1,                        !- Start Day 11
    11,                       !- End Month 11
    30,                       !- End Day 11
    Sched_Fraction_Office_Occupation_Week060,    !- ScheduleWeek Name 12
    12,                       !- Start Month 12
    1,                        !- Start Day 12
    12,                       !- End Month 12
    31;                       !- End Day 12

Schedule:Year,            
    Schedule_Fraction_Office_LightsElEq,    !- Name
    Fraction,                 !- Schedule Type Limits Name
    Sched_Fraction_Office_LightsElEq_Week080,    !- ScheduleWeek Name 1
    1,                        !- Start Month 1
    1,                        !- Start Day 1
    1,                        !- End Month 1
    31,                       !- End Day 1
    Sched_Fraction_Office_LightsElEq_Week060,    !- ScheduleWeek Name 2
    2,                        !- Start Month 2
    1,                        !- Start Day 2
    2,                        !- End Month 2
    28,                       !- End Day 2
    Sched_Fraction_Office_LightsElEq_Week100,    !- ScheduleWeek Name 3
    3,                        !- Start Month 3
    1,                        !- Start Day 3
    3,                        !- End Month 3
    31,                       !- End Day 3
    Sched_Fraction_Office_LightsElEq_Week080,    !- ScheduleWeek Name 4
    4,                        !- Start Month 4