
OS:Version,
  {16453d13-0a5f-45bc-a677-fbb4b0bb4d86}, !- Handle
  1.8.0;                                  !- Version Identifier

OS:SimulationControl,
  {53c9b55a-ff3a-451f-b11c-a248cfbd414e}, !- Handle
  No,                                     !- Do Zone Sizing Calculation
  No,                                     !- Do System Sizing Calculation
  No,                                     !- Do Plant Sizing Calculation
  No,                                     !- Run Simulation for Sizing Periods
  Yes,                                    !- Run Simulation for Weather File Run Periods
  0.04,                                   !- Loads Convergence Tolerance Value
  0.004,                                  !- Temperature Convergence Tolerance Value {deltaC}
  FullExterior,                           !- Solar Distribution
  100,                                    !- Maximum Number of Warmup Days
  6;                                      !- Minimum Number of Warmup Days

OS:ShadingSurface,
  {68bb99c2-255d-4a1a-b144-7735fc0f29e7}, !- Handle
  ShadingB398W2993,                       !- Name
  ,                                       !- Construction Name
  {6ca5fa68-0243-474d-af21-4d67608184e0}, !- Shading Surface Group Name
  ,                                       !- Transmittance Schedule Name
  ,                                       !- Number of Vertices
  -232.326110839844, -4.69343566894531, 46.7000007629395, !- X,Y,Z Vertex 1 {m}
  -232.326110839844, -4.69343566894531, 45.0666673448351, !- X,Y,Z Vertex 2 {m}
  -222.023590087891, -4.69343566894531, 45.0666673448351, !- X,Y,Z Vertex 3 {m}
  -222.023590087891, -4.69343566894531, 46.7000007629395; !- X,Y,Z Vertex 4 {m}

OS:ShadingSurfaceGroup,
  {6ca5fa68-0243-474d-af21-4d67608184e0}, !- Handle
  {f23cc1ae-1d22-47d1-b3f7-33b206699984}, !- Name
  Building;                               !- Shading Surface Type

OS:ShadingSurface,
  {f37df33b-9af6-4932-8daa-7832b6bfb093}, !- Handle
  ShadingB123W2660,                       !- Name
  ,                                       !- Construction Name
  {6ca5fa68-0243-474d-af21-4d67608184e0}, !- Shading Surface Group Name
  ,                                       !- Transmittance Schedule Name
  ,                                       !- Number of Vertices
  -176.636764526367, -271.551635742188, 42.1199993133545, !- X,Y,Z Vertex 1 {m}
  -176.636764526367, -271.551635742188, 37.4399993896484, !- X,Y,Z Vertex 2 {m}
  -150.744186401367, -271.564666748047, 37.4399993896484, !- X,Y,Z Vertex 3 {m}
  -150.744186401367, -271.564666748047, 42.1199993133545; !- X,Y,Z Vertex 4 {m}

OS:ShadingSurface,
  {cf637c9f-46f6-412f-a8ea-dbfcee66f8f4}, !- Handle
  ShadingB398W3128,                       !- Name
  ,                                       !- Construction Name
  {6ca5fa68-0243-474d-af21-4d67608184e0}, !- Shading Surface Group Name
  ,                                       !- Transmittance Schedule Name
  ,                                       !- Number of Vertices
  -242.004669189453, -129.837799072266, 33.8000005086263, !- X,Y,Z Vertex 1 {m}
  -242.004669189453, -129.837799072266, 28.1666670905219, !- X,Y,Z Vertex 2 {m}
  -222.118255615234, -129.837799072266, 28.1666670905219, !- X,Y,Z Vertex 3 {m}
  -222.118255615234, -129.837799072266, 33.8000005086263; !- X,Y,Z Vertex 4 {m}

OS:ShadingSurface,
  {52d7176f-9558-4348-8637-bd8e5b4d50b5}, !- Handle
  ShadingB3923W9405,                      !- Name
  ,                                       !- Construction Name
  {6ca5fa68-0243-474d-af21-4d67608184e0}, !- Shading Surface Group Name
  ,                                       !- Transmittance Schedule Name
  ,                                       !- Number of Vertices
  -0.676536560058588, -80.3047027587891, 6.875, !- X,Y,Z Vertex 1 {m}
  -0.676536560058588, -80.3047027587891, 0, !- X,Y,Z Vertex 2 {m}
  -4.01111602783204, -78.3886642456055, 0, !- X,Y,Z Vertex 3 {m}
  -4.01111602783204, -78.3886642456055, 6.875; !- X,Y,Z Vertex 4 {m}

OS:ShadingSurface,
  {747b1037-e762-4012-a762-090d4e2792ba}, !- Handle
  ShadingB123W2260,                       !- Name
  ,                                       !- Construction Name
  {6ca5fa68-0243-474d-af21-4d67608184e0}, !- Shading Surface Group Name
  ,                                       !- Transmittance Schedule Name
  ,                                       !- Number of Vertices
  -169.491775512695, -162.328491210938, 42.1199993133545, !- X,Y,Z Vertex 1 {m}
  -169.491775512695, -162.328491210938, 37.4399993896484, !- X,Y,Z Vertex 2 {m}
  -153.306228637695, -162.336608886719, 37.4399993896484, !- X,Y,Z Vertex 3 {m}
  -153.306228637695, -162.336608886719, 42.1199993133545; !- X,Y,Z Vertex 4 {m}

OS:ShadingSurface,
  {6991e980-678a-4e80-ba7e-fb8e70ec789f}, !- Handle
  ShadingB838W5898,                       !- Name
  ,                                       !- Construction Name
  {6ca5fa68-0243-474d-af21-4d67608184e0}, !- Shading Surface Group Name
  ,                                       !- Transmittance Schedule Name
  ,                                       !- Number of Vertices
  -149.480087280273, 59.2384376525879, 33.2888861762153, !- X,Y,Z Vertex 1 {m}
  -149.480087280273, 59.2384376525879, 29.1277754041884, !- X,Y,Z Vertex 2 {m}
  -160.060455322266, 59.2384376525879, 29.1277754041884, !- X,Y,Z Vertex 3 {m}
  -160.060455322266, 59.2384376525879, 33.2888861762153; !- X,Y,Z Vertex 4 {m}

OS:ShadingSurface,
  {3cde4e82-528f-4bd7-8119-c2f309bd419c}, !- Handle
  ShadingB398W3048,                       !- Name
  ,                                       !- Construction Name
  {6ca5fa68-0243-474d-af21-4d67608184e0}, !- Shading Surface Group Name
  ,                                       !- Transmittance Schedule Name
  ,                                       !- Number of Vertices
  -222.118255615234, -109.951385498047, 28.1666670905219, !- X,Y,Z Vertex 1 {m}
  -222.118255615234, -109.951385498047, 22.5333336724175, !- X,Y,Z Vertex 2 {m}
  -231.554641723633, -109.951385498047, 22.5333336724175, !- X,Y,Z Vertex 3 {m}
  -231.554641723633, -109.951385498047, 28.1666670905219; !- X,Y,Z Vertex 4 {m}

OS:ShadingSurface,
  {3c6339b1-7689-4142-8cdc-4b5e65994c9b}, !- Handle
  ShadingB3923W9740,                      !- Name
  ,                                       !- Construction Name
  {6ca5fa68-0243-474d-af21-4d67608184e0}, !- Shading Surface Group Name
  ,                                       !- Transmittance Schedule Name
  ,                                       !- Number of Vertices
  -61.6537132263184, -109.734436035156, 48.125, !- X,Y,Z Vertex 1 {m}
  -61.6537132263184, -109.734436035156, 41.25, !- X,Y,Z Vertex 2 {m}
  -29.2093925476074, -128.465728759766, 41.25, !- X,Y,Z Vertex 3 {m}
  -29.2093925476074, -128.465728759766, 48.125; !- X,Y,Z Vertex 4 {m}

OS:ShadingSurface,
  {68fcf09e-f9db-4f46-a6d1-38c01b9b98bc}, !- Handle
  ShadingB3923W9707,                      !- Name
  ,                                       !- Construction Name
  {6ca5fa68-0243-474d-af21-4d67608184e0}, !- Shading Surface Group Name
  ,                                       !- Transmittance Schedule Name
  ,                                       !- Number of Vertices
  65.0188751220703, -90.5947036743164, 41.25, !- X,Y,Z Vertex 1 {m}
  65.0188751220703, -90.5947036743164, 34.375, !- X,Y,Z Vertex 2 {m}
  63.2472381591797, -90.5947036743164, 34.375, !- X,Y,Z Vertex 3 {m}
  63.2472381591797, -90.5947036743164, 41.25; !- X,Y,Z Vertex 4 {m}

OS:ShadingSurface,
  {1597d207-0f36-41f0-82dc-d00c48d86583}, !- Handle
  ShadingB3923W9501,                      !- Name
  ,                                       !- Construction Name
  {6ca5fa68-0243-474d-af21-4d67608184e0}, !- Shading Surface Group Name
  ,                                       !- Transmittance Schedule Name
  ,                                       !- Number of Vertices
  50.8443756103516, -116.182250976563, 27.5, !- X,Y,Z Vertex 1 {m}
  50.8443756103516, -116.182250976563, 20.625, !- X,Y,Z Vertex 2 {m}
  50.8443756103516, -110.984840393066, 20.625, !- X,Y,Z Vertex 3 {m}
  50.8443756103516, -110.984840393066, 27.5; !- X,Y,Z Vertex 4 {m}

OS:ShadingSurface,
  {f384c145-9615-4117-a23d-0fe84d846c14}, !- Handle
  ShadingB123W2513,                       !- Name
  ,                                       !- Construction Name
  {6ca5fa68-0243-474d-af21-4d67608184e0}, !- Shading Surface Group Name
  ,                                       !- Transmittance Schedule Name
  ,                                       !- Number of Vertices
  -93.2483291625976, -271.57373046875, 14.0399997711182, !- X,Y,Z Vertex 1 {m}
  -93.2483291625976, -271.57373046875, 9.35999984741211, !- X,Y,Z Vertex 2 {m}
  -93.2055206298828, -186.360214233398, 9.35999984741211, !- X,Y,Z Vertex 3 {m}
  -93.2055206298828, -186.360214233398, 14.0399997711182; !- X,Y,Z Vertex 4 {m}

OS:Output:Variable,
  {61701d35-9056-460e-a1bc-525af32b3636}, !- Handle
  {12bf17a7-3f3c-47af-aab4-a2f8898582c8}, !- Name
  *,                                      !- Key Value
  Zone Ideal Loads Outdoor Air Total Cooling Energy, !- Variable Name
  timestep;                               !- Reporting Frequency

OS:ShadingSurface,
  {5960bcea-6fe3-40f6-a7b9-b4c79e92cad5}, !- Handle
  ShadingB3923W9947,                      !- Name
  ,                                       !- Construction Name
  {6ca5fa68-0243-474d-af21-4d67608184e0}, !- Shading Surface Group Name
  ,                                       !- Transmittance Schedule Name
  ,                                       !- Number of Vertices
  -19.9420166015625, -32.6195297241211, 13.75, !- X,Y,Z Vertex 1 {m}
  -19.9420166015625, -32.6195297241211, 6.875, !- X,Y,Z Vertex 2 {m}
  -13.0824279785156, -32.7322082519531, 6.875, !- X,Y,Z Vertex 3 {m}
  -13.0824279785156, -32.7322082519531, 13.75; !- X,Y,Z Vertex 4 {m}

OS:ShadingSurface,
  {ac24624f-386f-46cb-89e0-eec5d8e28d34}, !- Handle
  ShadingB797W5575,                       !- Name
  ,                                       !- Construction Name
  {6ca5fa68-0243-474d-af21-4d67608184e0}, !- Shading Surface Group Name
  ,                                       !- Transmittance Schedule Name
  ,                                       !- Number of Vertices
  -99.3439712524414, 32.7486953735352, 5.57777786254883, !- X,Y,Z Vertex 1 {m}
  -99.3439712524414, 32.7486953735352, 0, !- X,Y,Z Vertex 2 {m}
  -99.3439712524414, 40.4558029174805, 0, !- X,Y,Z Vertex 3 {m}
  -99.3439712524414, 40.4558029174805, 5.57777786254883; !- X,Y,Z Vertex 4 {m}

OS:Material,
  {7e321fe8-fcd0-40aa-824c-7da2b7e06563}, !- Handle
  MaterialsDB Mur inner insulation_M5,    !- Name
  MediumSmooth,                           !- Roughness
  0.02,                                   !- Thickness {m}
  0.87,                                   !- Conductivity {W/m-K}
  1800,                                   !- Density {kg/m3}
  1101.6,                                 !- Specific Heat {J/kg-K}
  0.9,                                    !- Thermal Absorptance
  0.7,                                    !- Solar Absorptance
  0.7;                                    !- Visible Absorptance

OS:ShadingSurface,
  {a6a5b4a3-2176-442e-b843-0d7cead27ccf}, !- Handle
  ShadingB398W3278,                       !- Name
  ,                                       !- Construction Name
  {6ca5fa68-0243-474d-af21-4d67608184e0}, !- Shading Surface Group Name
  ,                                       !- Transmittance Schedule Name
  ,                                       !- Number of Vertices
  -231.554641723633, -91.2865295410156, 5.63333341810438, !- X,Y,Z Vertex 1 {m}
  -231.554641723633, -91.2865295410156, 0, !- X,Y,Z Vertex 2 {m}
  -193.121673583984, -91.2865295410156, 0, !- X,Y,Z Vertex 3 {m}
  -193.121673583984, -91.2865295410156, 5.63333341810438; !- X,Y,Z Vertex 4 {m}

OS:ShadingSurface,
  {6be26b6c-e55b-43a9-822b-f68d76cfc5e4}, !- Handle
  ShadingB3923W9414,                      !- Name
  ,                                       !- Construction Name
  {6ca5fa68-0243-474d-af21-4d67608184e0}, !- Shading Surface Group Name
  ,                                       !- Transmittance Schedule Name
  ,                                       !- Number of Vertices
  21.8820114135742, -104.655860900879, 41.25, !- X,Y,Z Vertex 1 {m}
  21.8820114135742, -104.655860900879, 34.375, !- X,Y,Z Vertex 2 {m}
  21.8820114135742, -105.356994628906, 34.375, !- X,Y,Z Vertex 3 {m}
  21.8820114135742, -105.356994628906, 40.5000038146973, !- X,Y,Z Vertex 4 {m}
  21.8820114135742, -110.984840393066, 40.5000038146973, !- X,Y,Z Vertex 5 {m}
  21.8820114135742, -110.984840393066, 41.25; !- X,Y,Z Vertex 6 {m}

OS:ShadingSurface,
  {2171395e-d29c-4e74-b1f8-78797bb5c843}, !- Handle
  ShadingB123W2578,                       !- Name
  ,                                       !- Construction Name
  {6ca5fa68-0243-474d-af21-4d67608184e0}, !- Shading Surface Group Name
  ,                                       !- Transmittance Schedule Name
  ,                                       !- Number of Vertices
  -3.94572448730469, -271.572906494141, 18.7199996948242, !- X,Y,Z Vertex 1 {m}
  -3.94572448730469, -271.572906494141, 14.0399997711182, !- X,Y,Z Vertex 2 {m}
  21.8876953125, -271.585876464844, 14.0399997711182, !- X,Y,Z Vertex 3 {m}
  21.8876953125, -271.585876464844, 18.7199996948242; !- X,Y,Z Vertex 4 {m}

OS:ShadingSurface,
  {0b8b960a-74c5-465f-9dde-b7ef4eb58439}, !- Handle
  ShadingB797W5644,                       !- Name
  ,                                       !- Construction Name
  {6ca5fa68-0243-474d-af21-4d67608184e0}, !- Shading Surface Group Name
  ,                                       !- Transmittance Schedule Name
  ,                                       !- Number of Vertices
  -123.341979980469, -18.0433044433594, 11.1555557250977, !- X,Y,Z Vertex 1 {m}
  -123.341979980469, -18.0433044433594, 5.57777786254883, !- X,Y,Z Vertex 2 {m}
  -100.537895202637, -18.0433044433594, 5.57777786254883, !- X,Y,Z Vertex 3 {m}
  -100.537895202637, -18.0433044433594, 11.1555557250977; !- X,Y,Z Vertex 4 {m}

OS:ShadingSurface,
  {3e96c4f9-02e7-41eb-8c7b-f689074f36cd}, !- Handle
  ShadingB398W2976,                       !- Name
  ,                                       !- Construction Name
  {6ca5fa68-0243-474d-af21-4d67608184e0}, !- Shading Surface Group Name
  ,                                       !- Transmittance Schedule Name
  ,                                       !- Number of Vertices
  -232.326110839844, 15.0577392578125, 46.7000007629395, !- X,Y,Z Vertex 1 {m}
  -232.326110839844, 15.0577392578125, 45.0666673448351, !- X,Y,Z Vertex 2 {m}
  -232.326110839844, -4.69343566894531, 45.0666673448351, !- X,Y,Z Vertex 3 {m}
  -232.326110839844, -4.69343566894531, 46.7000007629395; !- X,Y,Z Vertex 4 {m}

OS:ShadingSurface,
  {17dfe760-3261-48f0-99ba-b7cf215829c7}, !- Handle
  ShadingB797W5549,                       !- Name
  ,                                       !- Construction Name
  {6ca5fa68-0243-474d-af21-4d67608184e0}, !- Shading Surface Group Name
  ,                                       !- Transmittance Schedule Name
  ,                                       !- Number of Vertices
  -99.3439712524414, 40.4558029174805, 22.3111114501953, !- X,Y,Z Vertex 1 {m}
  -99.3439712524414, 40.4558029174805, 16.7333335876465, !- X,Y,Z Vertex 2 {m}
  -120.76815032959, 40.4558029174805, 16.7333335876465, !- X,Y,Z Vertex 3 {m}
  -120.76815032959, 40.4558029174805, 22.3111114501953; !- X,Y,Z Vertex 4 {m}

OS:ShadingSurface,
  {2255733e-b72e-45f6-902d-5fde70f8c653}, !- Handle
  ShadingB123W2446,                       !- Name
  ,                                       !- Construction Name
  {6ca5fa68-0243-474d-af21-4d67608184e0}, !- Shading Surface Group Name
  ,                                       !- Transmittance Schedule Name
  ,                                       !- Number of Vertices
  79.3109283447266, -271.571838378906, 28.0799995422363, !- X,Y,Z Vertex 1 {m}
  79.3109283447266, -271.571838378906, 23.3999996185303, !- X,Y,Z Vertex 2 {m}
  79.3647613525391, -164.389266967773, 23.3999996185303, !- X,Y,Z Vertex 3 {m}
  79.3647613525391, -164.389266967773, 28.0799995422363; !- X,Y,Z Vertex 4 {m}

OS:ShadingSurface,
  {00b50ced-1ca2-495e-a2a5-ebe9560b77ac}, !- Handle
  ShadingB3923W9367,                      !- Name
  ,                                       !- Construction Name
  {6ca5fa68-0243-474d-af21-4d67608184e0}, !- Shading Surface Group Name
  ,                                       !- Transmittance Schedule Name
  ,                                       !- Number of Vertices
  -13.0440902709961, -131.557647705078, 27.5, !- X,Y,Z Vertex 1 {m}
  -13.0440902709961, -131.557647705078, 20.625, !- X,Y,Z Vertex 2 {m}
  -0.650882720947266, -124.407173156738, 20.625, !- X,Y,Z Vertex 3 {m}
  -0.650882720947266, -124.407173156738, 27.5; !- X,Y,Z Vertex 4 {m}

OS:ShadingSurface,
  {2760d59c-9009-4e46-bac2-8c99719fb013}, !- Handle
  ShadingB398W3373,                       !- Name
  ,                                       !- Construction Name
  {6ca5fa68-0243-474d-af21-4d67608184e0}, !- Shading Surface Group Name
  ,                                       !- Transmittance Schedule Name
  ,                                       !- Number of Vertices
  -183.746673583984, -42.4239349365234, 11.2666668362088, !- X,Y,Z Vertex 1 {m}
  -183.746673583984, -42.4239349365234, 5.63333341810439, !- X,Y,Z Vertex 2 {m}
  -203.164001464844, -42.4239349365234, 5.63333341810439, !- X,Y,Z Vertex 3 {m}
  -203.164001464844, -42.4239349365234, 11.2666668362088; !- X,Y,Z Vertex 4 {m}

OS:ShadingSurface,
  {a990fb92-e4cd-459c-9980-937500051fe9}, !- Handle
  ShadingB3923W9627,                      !- Name
  ,                                       !- Construction Name
  {6ca5fa68-0243-474d-af21-4d67608184e0}, !- Shading Surface Group Name
  ,                                       !- Transmittance Schedule Name
  ,                                       !- Number of Vertices
  50.8443756103516, -110.984840393066, 27.5, !- X,Y,Z Vertex 1 {m}
  50.8443756103516, -110.984840393066, 20.625, !- X,Y,Z Vertex 2 {m}
  58.0769271850586, -110.984840393066, 20.625, !- X,Y,Z Vertex 3 {m}
  58.0769271850586, -110.984840393066, 27.5; !- X,Y,Z Vertex 4 {m}

OS:ShadingSurface,
  {7d8c3976-2c2a-4513-a41a-ad760f202477}, !- Handle
  ShadingB797W5436,                       !- Name
  ,                                       !- Construction Name
  {6ca5fa68-0243-474d-af21-4d67608184e0}, !- Shading Surface Group Name
  ,                                       !- Transmittance Schedule Name
  ,                                       !- Number of Vertices
  -101.057861328125, -31.2888259887695, 33.466667175293, !- X,Y,Z Vertex 1 {m}
  -101.057861328125, -31.2888259887695, 27.8888893127441, !- X,Y,Z Vertex 2 {m}
  -106.632347106934, -31.2888259887695, 27.8888893127441, !- X,Y,Z Vertex 3 {m}
  -106.632347106934, -31.2888259887695, 33.466667175293; !- X,Y,Z Vertex 4 {m}

OS:ShadingSurface,
  {551c3a45-9dee-4406-bfa9-7043e134edc5}, !- Handle
  ShadingB3923W9522,                      !- Name
  ,                                       !- Construction Name
  {6ca5fa68-0243-474d-af21-4d67608184e0}, !- Shading Surface Group Name
  ,                                       !- Transmittance Schedule Name
  ,                                       !- Number of Vertices
  -4.01111602783203, -78.3886642456055, 20.625, !- X,Y,Z Vertex 1 {m}
  -4.01111602783203, -78.3886642456055, 13.75, !- X,Y,Z Vertex 2 {m}
  5.08475494384766, -73.1258926391602, 13.75, !- X,Y,Z Vertex 3 {m}
  5.08475494384766, -73.1258926391602, 20.625; !- X,Y,Z Vertex 4 {m}

OS:ShadingSurface,
  {8f41b942-95ad-4ba2-9f35-0b30e95a1235}, !- Handle
  ShadingB398W3453,                       !- Name
  ,                                       !- Construction Name
  {6ca5fa68-0243-474d-af21-4d67608184e0}, !- Shading Surface Group Name
  ,                                       !- Transmittance Schedule Name
  ,                                       !- Number of Vertices
  -193.121673583984, -91.2865295410156, 33.8000005086263, !- X,Y,Z Vertex 1 {m}
  -193.121673583984, -91.2865295410156, 28.1666670905219, !- X,Y,Z Vertex 2 {m}
  -193.121673583984, -62.6528015136719, 28.1666670905219, !- X,Y,Z Vertex 3 {m}
  -193.121673583984, -62.6528015136719, 33.8000005086263; !- X,Y,Z Vertex 4 {m}

OS:ShadingSurface,
  {c11f600c-7fd8-4c2f-91b9-0156fc982983}, !- Handle
  ShadingB797W5377,                       !- Name
  ,                                       !- Construction Name
  {6ca5fa68-0243-474d-af21-4d67608184e0}, !- Shading Surface Group Name
  ,                                       !- Transmittance Schedule Name
  ,                                       !- Number of Vertices
  -101.135803222656, 32.7486953735352, 39.0444450378418, !- X,Y,Z Vertex 1 {m}
  -101.135803222656, 32.7486953735352, 33.466667175293, !- X,Y,Z Vertex 2 {m}
  -99.3439712524414, 32.7486953735352, 33.466667175293, !- X,Y,Z Vertex 3 {m}
  -99.3439712524414, 32.7486953735352, 39.0444450378418; !- X,Y,Z Vertex 4 {m}

OS:ShadingSurface,
  {75212479-31ee-467f-b5b4-dfa194ca54f8}, !- Handle
  ShadingB123W2622,                       !- Name
  ,                                       !- Construction Name
  {6ca5fa68-0243-474d-af21-4d67608184e0}, !- Shading Surface Group Name
  ,                                       !- Transmittance Schedule Name
  ,                                       !- Number of Vertices
  -35.4759979248047, -186.479797363281, 46.7999992370605, !- X,Y,Z Vertex 1 {m}
  -35.4759979248047, -186.479797363281, 42.1199993133545, !- X,Y,Z Vertex 2 {m}
  -3.90298461914063, -186.495666503906, 42.1199993133545, !- X,Y,Z Vertex 3 {m}
  -3.90298461914063, -186.495666503906, 46.7999992370605; !- X,Y,Z Vertex 4 {m}

OS:ShadingSurface,
  {f59d0c21-e8bb-40b7-bd58-8cc1f671243d}, !- Handle
  ShadingB123W2747,                       !- Name
  ,                                       !- Construction Name
  {6ca5fa68-0243-474d-af21-4d67608184e0}, !- Shading Surface Group Name
  ,                                       !- Transmittance Schedule Name
  ,                                       !- Number of Vertices
  -119.220329284668, -271.560699462891, 28.0799995422363, !- X,Y,Z Vertex 1 {m}
  -119.220329284668, -271.560699462891, 23.3999996185303, !- X,Y,Z Vertex 2 {m}
  -93.2483291625976, -271.57373046875, 23.3999996185303, !- X,Y,Z Vertex 3 {m}
  -93.2483291625976, -271.57373046875, 28.0799995422363; !- X,Y,Z Vertex 4 {m}

OS:ShadingSurface,
  {57bbd53c-582b-4e4e-84f9-daff74f42a11}, !- Handle
  ShadingB398W2911,                       !- Name
  ,                                       !- Construction Name
  {6ca5fa68-0243-474d-af21-4d67608184e0}, !- Shading Surface Group Name
  ,                                       !- Transmittance Schedule Name
  ,                                       !- Number of Vertices
  -260.333953857422, -53.0442581176758, 5.63333341810439, !- X,Y,Z Vertex 1 {m}
  -260.333953857422, -53.0442581176758, 0, !- X,Y,Z Vertex 2 {m}
  -235.623138427734, -53.0442581176758, 0, !- X,Y,Z Vertex 3 {m}
  -235.623138427734, -53.0442581176758, 5.63333341810438; !- X,Y,Z Vertex 4 {m}

OS:ShadingSurface,
  {3c1a925a-3003-487b-8550-1f853396ae65}, !- Handle
  ShadingB797W5610,                       !- Name
  ,                                       !- Construction Name
  {6ca5fa68-0243-474d-af21-4d67608184e0}, !- Shading Surface Group Name
  ,                                       !- Transmittance Schedule Name
  ,                                       !- Number of Vertices
  -78.8824005126953, -11.2289657592773, 5.57777786254883, !- X,Y,Z Vertex 1 {m}
  -78.8824005126953, -11.2289657592773, 0, !- X,Y,Z Vertex 2 {m}
  -100.537895202637, -11.2289657592773, 0, !- X,Y,Z Vertex 3 {m}
  -100.537895202637, -11.2289657592773, 5.57777786254883; !- X,Y,Z Vertex 4 {m}

OS:SubSurface,
  {3efaa1e1-1d0f-4803-b97e-a19088a64615}, !- Handle
  Window99114231_2,                       !- Name
  FixedWindow,                            !- Sub Surface Type
  {349e0bf2-9cec-4b51-b8dd-83f7d26d1fc0}, !- Construction Name
  {01d64c04-76e4-49f3-b1bb-6eae2ac5bfcd}, !- Surface Name
  ,                                       !- Outside Boundary Condition Object
  ,                                       !- View Factor to Ground
  ,                                       !- Shading Control Name
  ,                                       !- Frame and Divider Name
  1,                                      !- Multiplier
  ,                                       !- Number of Vertices
  -152.277625452, -46.0463600158691, 33.120339213, !- X,Y,Z Vertex 1 {m}
  -161.334526647, -46.0463600158691, 28.6196594137, !- X,Y,Z Vertex 2 {m}
  -161.334526647, -46.0463600158691, 33.120339213; !- X,Y,Z Vertex 3 {m}

OS:Construction,
  {349e0bf2-9cec-4b51-b8dd-83f7d26d1fc0}, !- Handle
  WindowConstructionU1.10G0.70,           !- Name
  {01033a5f-0fc3-49fb-ba48-5fd1e692b669}, !- Surface Rendering Name
  {ad0f8fe2-97fe-4f1a-aa26-14b7b4ce0c85}; !- Layer 1

OS:WindowMaterial:SimpleGlazingSystem,
  {ad0f8fe2-97fe-4f1a-aa26-14b7b4ce0c85}, !- Handle
  WindowMaterialU1.10G0.70,               !- Name
  1.1,                                    !- U-Factor {W/m2-K}
  0.7;                                    !- Solar Heat Gain Coefficient

OS:Surface,
  {01d64c04-76e4-49f3-b1bb-6eae2ac5bfcd}, !- Handle
  Wall99114231,                           !- Name
  Wall,                                   !- Surface Type
  {7af9d398-bb95-40a3-9e9a-ca916de5a796}, !- Construction Name
  {aead12a5-8d56-4c72-b2b6-12741b27d32a}, !- Space Name
  Outdoors,                               !- Outside Boundary Condition
  ,                                       !- Outside Boundary Condition Object
  SunExposed,                             !- Sun Exposure
  WindExposed,                            !- Wind Exposure
  ,                                       !- View Factor to Ground
  ,                                       !- Number of Vertices
  -149.903747558594, -46.0463600158691, 34.2999992370606, !- X,Y,Z Vertex 1 {m}
  -149.903747558594, -46.0463600158691, 27.4399993896484, !- X,Y,Z Vertex 2 {m}
  -163.708404541016, -46.0463600158691, 27.4399993896484, !- X,Y,Z Vertex 3 {m}
  -163.708404541016, -46.0463600158691, 34.2999992370606; !- X,Y,Z Vertex 4 {m}

OS:Construction,
  {7af9d398-bb95-40a3-9e9a-ca916de5a796}, !- Handle
  MaterialsDB Mur inner insulation,       !- Name
  {a7e5f2ef-f517-4312-8c6b-0e0beaccbec5}, !- Surface Rendering Name
  {9b31ea6e-3924-4440-ad5f-ca10c26b20ec}, !- Layer 1
  {ab2eae0e-a2b5-4505-aa28-7c201f08bfc6}, !- Layer 2
  {e9f94ddc-b1ec-42b0-bc37-ed45c2beff77}, !- Layer 3
  {f359d00c-13f0-4693-9738-a248a0b83d4f}, !- Layer 4
  {c1bdef17-ab92-4664-a81e-63ecd251bf30}, !- Layer 5
  {7e321fe8-fcd0-40aa-824c-7da2b7e06563}, !- Layer 6
  {4ae2b20e-9f2e-4c5f-a43b-1705603b4f72}; !- Layer 7

OS:Material,
  {9b31ea6e-3924-4440-ad5f-ca10c26b20ec}, !- Handle
  MaterialsDB Mur inner insulation_M0,    !- Name
  MediumSmooth,                           !- Roughness
  0.01,                                   !- Thickness {m}
  0.58,                                   !- Conductivity {W/m-K}
  1200,                                   !- Density {kg/m3}
  900,                                    !- Specific Heat {J/kg-K}
  0.9,                                    !- Thermal Absorptance
  0.7,                                    !- Solar Absorptance
  0.7;                                    !- Visible Absorptance

OS:Material,
  {ab2eae0e-a2b5-4505-aa28-7c201f08bfc6}, !- Handle
  MaterialsDB Mur inner insulation_M1,    !- Name
  MediumSmooth,                           !- Roughness
  0.04,                                   !- Thickness {m}
  0.47,                                   !- Conductivity {W/m-K}
  1200,                                   !- Density {kg/m3}
  900,                                    !- Specific Heat {J/kg-K}
  0.9,                                    !- Thermal Absorptance
  0.7,                                    !- Solar Absorptance
  0.7;                                    !- Visible Absorptance

OS:Material,
  {e9f94ddc-b1ec-42b0-bc37-ed45c2beff77}, !- Handle
  MaterialsDB Mur inner insulation_M2,    !- Name
  MediumSmooth,                           !- Roughness
  0.0005,                                 !- Thickness {m}
  0.2,                                    !- Conductivity {W/m-K}
  1000,                                   !- Density {kg/m3}
  1400.4,                                 !- Specific Heat {J/kg-K}
  0.9,                                    !- Thermal Absorptance
  0.7,                                    !- Solar Absorptance
  0.7;                                    !- Visible Absorptance

OS:Material,
  {f359d00c-13f0-4693-9738-a248a0b83d4f}, !- Handle
  MaterialsDB Mur inner insulation_M3,    !- Name
  MediumSmooth,                           !- Roughness
  0.06,                                   !- Thickness {m}
  0.044,                                  !- Conductivity {W/m-K}
  15,                                     !- Density {kg/m3}
  601.2,                                  !- Specific Heat {J/kg-K}
  0.9,                                    !- Thermal Absorptance
  0.7,                                    !- Solar Absorptance
  0.7;                                    !- Visible Absorptance

OS:Material,
  {c1bdef17-ab92-4664-a81e-63ecd251bf30}, !- Handle
  MaterialsDB Mur inner insulation_M4,    !- Name
  MediumSmooth,                           !- Roughness
  0.15,                                   !- Thickness {m}
  0.7,                                    !- Conductivity {W/m-K}
  1200,                                   !- Density {kg/m3}
  1100,                                   !- Specific Heat {J/kg-K}
  0.9,                                    !- Thermal Absorptance
  0.7,                                    !- Solar Absorptance
  0.7;                                    !- Visible Absorptance

OS:Material,
  {4ae2b20e-9f2e-4c5f-a43b-1705603b4f72}, !- Handle