
OS:Version,
  {3876f9cf-ddcd-4fdf-9fa0-811c3d012ce6}, !- Handle
  1.8.0;                                  !- Version Identifier

OS:SimulationControl,
  {37b2d23f-32b0-4347-833b-b3e34db5c272}, !- Handle
  No,                                     !- Do Zone Sizing Calculation
  No,                                     !- Do System Sizing Calculation
  No,                                     !- Do Plant Sizing Calculation
  No,                                     !- Run Simulation for Sizing Periods
  Yes,                                    !- Run Simulation for Weather File Run Periods
  0.04,                                   !- Loads Convergence Tolerance Value
  0.004,                                  !- Temperature Convergence Tolerance Value {deltaC}
  FullExterior,                           !- Solar Distribution
  100,                                    !- Maximum Number of Warmup Days
  6;                                      !- Minimum Number of Warmup Days

OS:ShadingSurface,
  {4223fac3-7ff7-4016-8a8b-678f16c4042b}, !- Handle
  ShadingB797W5747,                       !- Name
  ,                                       !- Construction Name
  {e1db4385-c777-4d32-9219-f302223cc142}, !- Shading Surface Group Name
  ,                                       !- Transmittance Schedule Name
  ,                                       !- Number of Vertices
  -120.908050537109, -31.2888259887695, 5.57777786254883, !- X,Y,Z Vertex 1 {m}
  -120.908050537109, -31.2888259887695, 0, !- X,Y,Z Vertex 2 {m}
  -120.908050537109, -68.6093063354492, 0, !- X,Y,Z Vertex 3 {m}
  -120.908050537109, -68.6093063354492, 5.57777786254883; !- X,Y,Z Vertex 4 {m}

OS:ShadingSurfaceGroup,
  {e1db4385-c777-4d32-9219-f302223cc142}, !- Handle
  {9aee0659-2566-4970-bde7-9295e7444bc5}, !- Name
  Building,                               !- Shading Surface Type
  ,                                       !- Space Name
  ,                                       !- Direction of Relative North {deg}
  ,                                       !- X Origin {m}
  ,                                       !- Y Origin {m}
  ,                                       !- Z Origin {m}
  ;                                       !- Shaded Object Name

OS:ShadingSurface,
  {a9bd78d1-a1b3-466e-a25f-1d0d04c56fe6}, !- Handle
  ShadingB500W4014,                       !- Name
  ,                                       !- Construction Name
  {e1db4385-c777-4d32-9219-f302223cc142}, !- Shading Surface Group Name
  ,                                       !- Transmittance Schedule Name
  ,                                       !- Number of Vertices
  -226.091262817383, 38.452564239502, 26.6436875661214, !- X,Y,Z Vertex 1 {m}
  -226.091262817383, 38.452564239502, 20.6411577860514, !- X,Y,Z Vertex 2 {m}
  -226.071166992188, 54.4323654174805, 20.6411577860514, !- X,Y,Z Vertex 3 {m}
  -226.071166992188, 54.4323654174805, 26.6436875661214; !- X,Y,Z Vertex 4 {m}

OS:ShadingSurface,
  {a19496f5-7cdc-46f6-915d-a3a6eefe26e7}, !- Handle
  ShadingB4155W4855,                      !- Name
  ,                                       !- Construction Name
  {e1db4385-c777-4d32-9219-f302223cc142}, !- Shading Surface Group Name
  ,                                       !- Transmittance Schedule Name
  ,                                       !- Number of Vertices
  -265.559753417969, 56.6215744018555, -3.36896133422851, !- X,Y,Z Vertex 1 {m}
  -265.559753417969, 56.6215744018555, -9.3714911142985, !- X,Y,Z Vertex 2 {m}
  -265.506683349609, 25.8617649078369, -9.3714911142985, !- X,Y,Z Vertex 3 {m}
  -265.506683349609, 25.8617649078369, -3.36896133422851; !- X,Y,Z Vertex 4 {m}

OS:ShadingSurface,
  {a3b879a2-9234-437b-8712-3ddc2f020b95}, !- Handle
  ShadingB3252W10139,                     !- Name
  ,                                       !- Construction Name
  {e1db4385-c777-4d32-9219-f302223cc142}, !- Shading Surface Group Name
  ,                                       !- Transmittance Schedule Name
  ,                                       !- Number of Vertices
  91.0499496459961, -17.6548404693604, 56.8384604820838, !- X,Y,Z Vertex 1 {m}
  91.0499496459961, -17.6548404693604, 50.5230759840745, !- X,Y,Z Vertex 2 {m}
  96.4054412841797, -17.6548404693604, 50.5230759840745, !- X,Y,Z Vertex 3 {m}
  96.4054412841797, -17.6548404693604, 56.8384604820838; !- X,Y,Z Vertex 4 {m}

OS:ShadingSurface,
  {ee968291-fe2c-4654-a960-89726ec24969}, !- Handle
  ShadingB398W3423,                       !- Name
  ,                                       !- Construction Name
  {e1db4385-c777-4d32-9219-f302223cc142}, !- Shading Surface Group Name
  ,                                       !- Transmittance Schedule Name
  ,                                       !- Number of Vertices
  -193.121673583984, -62.6528015136719, 16.9000002543131, !- X,Y,Z Vertex 1 {m}
  -193.121673583984, -62.6528015136719, 11.2666668362088, !- X,Y,Z Vertex 2 {m}
  -183.746673583984, -62.6528015136719, 11.2666668362088, !- X,Y,Z Vertex 3 {m}
  -183.746673583984, -62.6528015136719, 16.9000002543131; !- X,Y,Z Vertex 4 {m}

OS:ShadingSurface,
  {a1fe4895-e7b9-4bed-839f-5dc590171ca7}, !- Handle
  ShadingB3429W10642,                     !- Name
  ,                                       !- Construction Name
  {e1db4385-c777-4d32-9219-f302223cc142}, !- Shading Surface Group Name
  ,                                       !- Transmittance Schedule Name
  ,                                       !- Number of Vertices
  -40.7995491027832, 84.4834899902344, 33.1333363850911, !- X,Y,Z Vertex 1 {m}
  -40.7995491027832, 84.4834899902344, 27.6111136542426, !- X,Y,Z Vertex 2 {m}
  -41.5306205749512, 84.4834899902344, 27.6111136542426, !- X,Y,Z Vertex 3 {m}
  -41.5306205749512, 84.4834899902344, 33.1333363850911; !- X,Y,Z Vertex 4 {m}

OS:ShadingSurface,
  {4700e48a-0a5e-4e69-b39f-8e7e261d046c}, !- Handle
  ShadingB797W5371,                       !- Name
  ,                                       !- Construction Name
  {e1db4385-c777-4d32-9219-f302223cc142}, !- Shading Surface Group Name
  ,                                       !- Transmittance Schedule Name
  ,                                       !- Number of Vertices
  -101.135803222656, 32.7486953735352, 11.1555557250977, !- X,Y,Z Vertex 1 {m}
  -101.135803222656, 32.7486953735352, 5.57777786254883, !- X,Y,Z Vertex 2 {m}
  -99.3439712524414, 32.7486953735352, 5.57777786254883, !- X,Y,Z Vertex 3 {m}
  -99.3439712524414, 32.7486953735352, 11.1555557250977; !- X,Y,Z Vertex 4 {m}

OS:ShadingSurface,
  {44f73e3c-f9e1-4396-ad8b-0593e51109fa}, !- Handle
  ShadingB2206W7205,                      !- Name
  ,                                       !- Construction Name
  {e1db4385-c777-4d32-9219-f302223cc142}, !- Shading Surface Group Name
  ,                                       !- Transmittance Schedule Name
  ,                                       !- Number of Vertices
  -228.301422119141, -303.700775146484, 24, !- X,Y,Z Vertex 1 {m}
  -228.301422119141, -303.700775146484, 18, !- X,Y,Z Vertex 2 {m}
  -228.054916381836, -303.984466552734, 18, !- X,Y,Z Vertex 3 {m}
  -228.054916381836, -303.984466552734, 24; !- X,Y,Z Vertex 4 {m}

OS:ShadingSurface,
  {ba91421f-5986-4b45-81e9-5f675b486836}, !- Handle
  ShadingB3923W9847,                      !- Name
  ,                                       !- Construction Name
  {e1db4385-c777-4d32-9219-f302223cc142}, !- Shading Surface Group Name
  ,                                       !- Transmittance Schedule Name
  ,                                       !- Number of Vertices
  5.08475494384766, -104.668449401855, 20.625, !- X,Y,Z Vertex 1 {m}
  5.08475494384766, -104.668449401855, 13.75, !- X,Y,Z Vertex 2 {m}
  21.8820114135742, -104.655860900879, 13.75, !- X,Y,Z Vertex 3 {m}
  21.8820114135742, -104.655860900879, 20.625; !- X,Y,Z Vertex 4 {m}

OS:ShadingSurface,
  {a1c5b09e-cb61-4842-8672-1e8adc65357e}, !- Handle
  ShadingB1173W6570,                      !- Name
  ,                                       !- Construction Name
  {e1db4385-c777-4d32-9219-f302223cc142}, !- Shading Surface Group Name
  ,                                       !- Transmittance Schedule Name
  ,                                       !- Number of Vertices
  -222.819641113281, -249.758544921875, 12, !- X,Y,Z Vertex 1 {m}
  -222.819641113281, -249.758544921875, 6, !- X,Y,Z Vertex 2 {m}
  -222.70182800293, -248.724502563477, 6, !- X,Y,Z Vertex 3 {m}
  -222.70182800293, -248.724502563477, 12; !- X,Y,Z Vertex 4 {m}

OS:ShadingSurface,
  {d6805694-b32f-46db-9a66-6c2c06f8abbc}, !- Handle
  ShadingB4247W4360,                      !- Name
  ,                                       !- Construction Name
  {e1db4385-c777-4d32-9219-f302223cc142}, !- Shading Surface Group Name
  ,                                       !- Transmittance Schedule Name
  ,                                       !- Number of Vertices
  -206.104385375977, 63.4990768432617, 26.6436875661214, !- X,Y,Z Vertex 1 {m}
  -206.104385375977, 63.4990768432617, 20.6411577860514, !- X,Y,Z Vertex 2 {m}
  -203.74089050293, 63.4990768432617, 20.6411577860514, !- X,Y,Z Vertex 3 {m}
  -203.74089050293, 63.4990768432617, 26.6436875661214; !- X,Y,Z Vertex 4 {m}

OS:ShadingSurface,
  {b84ab039-656f-4dc2-a5c2-721c26380b19}, !- Handle
  ShadingB123W2791,                       !- Name
  ,                                       !- Construction Name
  {e1db4385-c777-4d32-9219-f302223cc142}, !- Shading Surface Group Name
  ,                                       !- Transmittance Schedule Name
  ,                                       !- Number of Vertices
  -150.701324462891, -186.276184082031, 14.0399997711182, !- X,Y,Z Vertex 1 {m}
  -150.701324462891, -186.276184082031, 9.35999984741211, !- X,Y,Z Vertex 2 {m}
  -119.177490234375, -186.292022705078, 9.35999984741211, !- X,Y,Z Vertex 3 {m}
  -119.177490234375, -186.292022705078, 14.0399997711182; !- X,Y,Z Vertex 4 {m}

OS:ShadingSurface,
  {ea68b781-6200-47a1-ba54-cb083d7c82f4}, !- Handle
  ShadingB4226W4487,                      !- Name
  ,                                       !- Construction Name
  {e1db4385-c777-4d32-9219-f302223cc142}, !- Shading Surface Group Name
  ,                                       !- Transmittance Schedule Name
  ,                                       !- Number of Vertices
  -225.999618530273, 63.4014167785645, 14.6386280059814, !- X,Y,Z Vertex 1 {m}
  -225.999618530273, 63.4014167785645, 8.63609822591146, !- X,Y,Z Vertex 2 {m}
  -225.950744628906, 91.7273864746094, 8.63609822591146, !- X,Y,Z Vertex 3 {m}
  -225.950744628902, 91.7273864769471, 14.6386280059814; !- X,Y,Z Vertex 4 {m}

OS:ShadingSurface,
  {6f90d1ec-0611-4b59-a511-1c28cc4474cb}, !- Handle
  ShadingB2206W6679,                      !- Name
  ,                                       !- Construction Name
  {e1db4385-c777-4d32-9219-f302223cc142}, !- Shading Surface Group Name
  ,                                       !- Transmittance Schedule Name
  ,                                       !- Number of Vertices
  -202.208424362762, -253.753556918575, 35.9999998603721, !- X,Y,Z Vertex 1 {m}
  -202.208322822039, -253.752260936026, 30.000000142019, !- X,Y,Z Vertex 2 {m}
  -203.914091400092, -253.618613322162, 29.999999857981, !- X,Y,Z Vertex 3 {m}
  -203.943199876647, -253.61763660043, 36.0000001396279; !- X,Y,Z Vertex 4 {m}

OS:ShadingSurface,
  {572a5429-fc60-4423-95c1-68c6ac24b098}, !- Handle
  ShadingB2808W7810,                      !- Name
  ,                                       !- Construction Name
  {e1db4385-c777-4d32-9219-f302223cc142}, !- Shading Surface Group Name
  ,                                       !- Transmittance Schedule Name
  ,                                       !- Number of Vertices
  -243.675638878466, -294.544331132093, 36.0000000200599, !- X,Y,Z Vertex 1 {m}
  -243.687887275278, -294.560925555297, 29.9999999807125, !- X,Y,Z Vertex 2 {m}
  -243.390118001915, -294.13694807376, 30.0000000192875, !- X,Y,Z Vertex 3 {m}
  -243.389720383854, -294.137227330197, 35.9999999799401; !- X,Y,Z Vertex 4 {m}

OS:ShadingSurface,
  {950562bd-94cc-4399-ae5f-72b7ffd16350}, !- Handle
  ShadingB4184W11942,                     !- Name
  ,                                       !- Construction Name
  {e1db4385-c777-4d32-9219-f302223cc142}, !- Shading Surface Group Name
  ,                                       !- Transmittance Schedule Name
  ,                                       !- Number of Vertices
  -275.262298583984, 113.28108215332, 23.3500003814697, !- X,Y,Z Vertex 1 {m}
  -275.262298583984, 113.28108215332, 17.5125002861023, !- X,Y,Z Vertex 2 {m}
  -202.680999755859, 113.28108215332, 17.5125002861023, !- X,Y,Z Vertex 3 {m}
  -202.680999755859, 113.28108215332, 23.3500003814697; !- X,Y,Z Vertex 4 {m}

OS:ShadingSurface,
  {99381bf4-8e5a-4963-b52e-74e584e7d127}, !- Handle
  ShadingB4205W5088,                      !- Name
  ,                                       !- Construction Name
  {e1db4385-c777-4d32-9219-f302223cc142}, !- Shading Surface Group Name
  ,                                       !- Transmittance Schedule Name
  ,                                       !- Number of Vertices
  -255.669128417969, 63.576488494873, 32.4462203979492, !- X,Y,Z Vertex 1 {m}
  -258.058319091797, 63.576488494873, 31.3860397338867, !- X,Y,Z Vertex 2 {m}
  -258.058319091797, 63.576488494873, 26.6436875661214, !- X,Y,Z Vertex 3 {m}
  -255.669128417969, 63.576488494873, 26.6436875661214; !- X,Y,Z Vertex 4 {m}

OS:ShadingSurface,
  {2dddd5fe-fb00-4f33-90e0-e18e0461c654}, !- Handle
  ShadingB3923W9724,                      !- Name
  ,                                       !- Construction Name
  {e1db4385-c777-4d32-9219-f302223cc142}, !- Shading Surface Group Name
  ,                                       !- Transmittance Schedule Name
  ,                                       !- Number of Vertices
  65.0188751220703, -96.2729187011719, 27.5, !- X,Y,Z Vertex 1 {m}
  65.0188751220703, -96.2729187011719, 20.625, !- X,Y,Z Vertex 2 {m}
  65.0188751220703, -90.5947036743164, 20.625, !- X,Y,Z Vertex 3 {m}
  65.0188751220703, -90.5947036743164, 27.5; !- X,Y,Z Vertex 4 {m}

OS:ShadingSurface,
  {ceb9564e-3ae8-4a2d-8f9a-dc2c98a6bbc5}, !- Handle
  ShadingB1173W6010,                      !- Name
  ,                                       !- Construction Name
  {e1db4385-c777-4d32-9219-f302223cc142}, !- Shading Surface Group Name
  ,                                       !- Transmittance Schedule Name
  ,                                       !- Number of Vertices
  -231.270080566406, -257.191192626953, 30, !- X,Y,Z Vertex 1 {m}
  -231.270080566406, -257.191192626953, 24, !- X,Y,Z Vertex 2 {m}
  -228.597274780273, -255.979934692383, 24, !- X,Y,Z Vertex 3 {m}
  -228.597274780273, -255.979934692383, 30; !- X,Y,Z Vertex 4 {m}

OS:ShadingSurface,
  {9e2656c4-908c-4ee4-9148-114ee7efeae8}, !- Handle
  ShadingB123W2562,                       !- Name
  ,                                       !- Construction Name
  {e1db4385-c777-4d32-9219-f302223cc142}, !- Shading Surface Group Name
  ,                                       !- Transmittance Schedule Name
  ,                                       !- Number of Vertices
  -3.90298461914063, -186.495666503906, 32.7599994659424, !- X,Y,Z Vertex 1 {m}
  -3.90298461914063, -186.495666503906, 28.0799995422363, !- X,Y,Z Vertex 2 {m}
  -3.94572448730469, -271.572906494141, 28.0799995422363, !- X,Y,Z Vertex 3 {m}
  -3.94572448730469, -271.572906494141, 32.7599994659424; !- X,Y,Z Vertex 4 {m}

OS:ShadingSurface,
  {b2a36eac-473f-423a-8b9e-5c4539937188}, !- Handle
  ShadingB3429W10872,                     !- Name
  ,                                       !- Construction Name
  {e1db4385-c777-4d32-9219-f302223cc142}, !- Shading Surface Group Name
  ,                                       !- Transmittance Schedule Name
  ,                                       !- Number of Vertices
  -66.6906051635742, 162.32780456543, 11.044445461697, !- X,Y,Z Vertex 1 {m}
  -66.6906051635742, 162.32780456543, 5.52222273084853, !- X,Y,Z Vertex 2 {m}
  -66.6906051635742, 130.907211303711, 5.52222273084853, !- X,Y,Z Vertex 3 {m}
  -66.6906051635742, 130.907211303711, 11.044445461697; !- X,Y,Z Vertex 4 {m}

OS:ShadingSurface,
  {b4acf218-0b7e-44c6-8df1-c8139f97dacf}, !- Handle
  ShadingB797W5588,                       !- Name
  ,                                       !- Construction Name
  {e1db4385-c777-4d32-9219-f302223cc142}, !- Shading Surface Group Name
  ,                                       !- Transmittance Schedule Name
  ,                                       !- Number of Vertices
  -62.3872489929199, -4.30924987792969, 22.3111114501953, !- X,Y,Z Vertex 1 {m}
  -62.3872489929199, -4.30924987792969, 16.7333335876465, !- X,Y,Z Vertex 2 {m}
  -78.8824005126953, -4.30924987792969, 16.7333335876465, !- X,Y,Z Vertex 3 {m}
  -78.8824005126953, -4.30924987792969, 22.3111114501953; !- X,Y,Z Vertex 4 {m}

OS:ShadingSurface,
  {4c76905c-8345-4ebd-9a9d-d0ec98b95828}, !- Handle
  ShadingB883W2126,                       !- Name
  ,                                       !- Construction Name
  {e1db4385-c777-4d32-9219-f302223cc142}, !- Shading Surface Group Name
  ,                                       !- Transmittance Schedule Name
  ,                                       !- Number of Vertices
  -183.725311279297, 215.091339111328, 25.7000007629395, !- X,Y,Z Vertex 1 {m}
  -183.725311279297, 215.091339111328, 17.1333338419596, !- X,Y,Z Vertex 2 {m}
  -183.725311279297, 225.956405639648, 17.1333338419596, !- X,Y,Z Vertex 3 {m}
  -183.725311279297, 225.956405639648, 25.7000007629395; !- X,Y,Z Vertex 4 {m}

OS:ShadingSurface,
  {aed49a69-70e0-45b4-b8c6-1225a7503e30}, !- Handle
  ShadingB2206W7128,                      !- Name
  ,                                       !- Construction Name
  {e1db4385-c777-4d32-9219-f302223cc142}, !- Shading Surface Group Name
  ,                                       !- Transmittance Schedule Name
  ,                                       !- Number of Vertices
  -210.695434570313, -256.394744873047, 18, !- X,Y,Z Vertex 1 {m}
  -210.695434570313, -256.394744873047, 12, !- X,Y,Z Vertex 2 {m}
  -211.380996704102, -257.104614257813, 12, !- X,Y,Z Vertex 3 {m}
  -211.380996704102, -257.104614257813, 18; !- X,Y,Z Vertex 4 {m}

OS:ShadingSurface,
  {f480bde9-52a6-4f0b-998a-bb6977e2a625}, !- Handle
  ShadingB3429W10597,                     !- Name
  ,                                       !- Construction Name
  {e1db4385-c777-4d32-9219-f302223cc142}, !- Shading Surface Group Name
  ,                                       !- Transmittance Schedule Name
  ,                                       !- Number of Vertices
  -56.0903549194336, 165.860961914063, 38.6555591159397, !- X,Y,Z Vertex 1 {m}
  -56.0903549194336, 165.860961914063, 33.1333363850911, !- X,Y,Z Vertex 2 {m}
  -56.0903549194336, 160.402847290039, 33.1333363850911, !- X,Y,Z Vertex 3 {m}
  -56.0903549194336, 160.402847290039, 38.6555591159397; !- X,Y,Z Vertex 4 {m}

OS:ShadingSurface,
  {679cc892-09ec-4cbe-ae46-477dd44561b7}, !- Handle
  ShadingB123W2441,                       !- Name
  ,                                       !- Construction Name
  {e1db4385-c777-4d32-9219-f302223cc142}, !- Shading Surface Group Name
  ,                                       !- Transmittance Schedule Name
  ,                                       !- Number of Vertices
  79.3109283447266, -271.571838378906, 42.1199993133545, !- X,Y,Z Vertex 1 {m}
  79.3109283447266, -271.571838378906, 37.4399993896484, !- X,Y,Z Vertex 2 {m}
  79.3647613525391, -164.389266967773, 37.4399993896484, !- X,Y,Z Vertex 3 {m}
  79.3647613525391, -164.389266967773, 42.1199993133545; !- X,Y,Z Vertex 4 {m}

OS:ShadingSurface,
  {b0ee080f-9d8a-4a8b-a566-1616b70391a9}, !- Handle
  ShadingB3923W9885,                      !- Name
  ,                                       !- Construction Name
  {e1db4385-c777-4d32-9219-f302223cc142}, !- Shading Surface Group Name
  ,                                       !- Transmittance Schedule Name
  ,                                       !- Number of Vertices
  -4.89778900146484, -29.8372192382813, 27.5, !- X,Y,Z Vertex 1 {m}
  -4.89778900146484, -29.8372192382813, 20.625, !- X,Y,Z Vertex 2 {m}
  -4.89778900146484, -24.353157043457, 20.625, !- X,Y,Z Vertex 3 {m}
  -4.89778900146484, -24.353157043457, 27.5; !- X,Y,Z Vertex 4 {m}

OS:ShadingSurface,
  {f4f442ae-8986-48f2-adf1-e5723db94f21}, !- Handle
  ShadingB3532W11303,                     !- Name
  ,                                       !- Construction Name
  {e1db4385-c777-4d32-9219-f302223cc142}, !- Shading Surface Group Name
  ,                                       !- Transmittance Schedule Name
  ,                                       !- Number of Vertices
  -2.20503377914429, 84.5658950805664, 9.98000030517578, !- X,Y,Z Vertex 1 {m}
  -2.20503377914429, 84.5658950805664, 4.99000015258789, !- X,Y,Z Vertex 2 {m}
  -2.19997835159302, 78.4280853271484, 4.99000015258789, !- X,Y,Z Vertex 3 {m}
  -2.19997835159302, 78.4280853271484, 9.98000030517578; !- X,Y,Z Vertex 4 {m}

OS:ShadingSurface,
  {a55b096f-d3ef-499f-af4b-947bda89082f}, !- Handle
  ShadingB1173W6075,                      !- Name
  ,                                       !- Construction Name
  {e1db4385-c777-4d32-9219-f302223cc142}, !- Shading Surface Group Name
  ,                                       !- Transmittance Schedule Name
  ,                                       !- Number of Vertices
  -247.157608032227, -260.488555908203, 36, !- X,Y,Z Vertex 1 {m}
  -247.157608032227, -260.488555908203, 30, !- X,Y,Z Vertex 2 {m}
  -246.088745117188, -260.025512695313, 30, !- X,Y,Z Vertex 3 {m}
  -246.088745117188, -260.025512695313, 36; !- X,Y,Z Vertex 4 {m}

OS:ShadingSurface,
  {1ffe6e1c-0097-4016-b78e-234f564fc19b}, !- Handle
  ShadingB2206W6844,                      !- Name
  ,                                       !- Construction Name
  {e1db4385-c777-4d32-9219-f302223cc142}, !- Shading Surface Group Name
  ,                                       !- Transmittance Schedule Name
  ,                                       !- Number of Vertices
  -224.478240966797, -289.188507080078, 30, !- X,Y,Z Vertex 1 {m}
  -224.478240966797, -289.188507080078, 24, !- X,Y,Z Vertex 2 {m}
  -226.030471801758, -290.082580566406, 24, !- X,Y,Z Vertex 3 {m}
  -226.030471801758, -290.082580566406, 30; !- X,Y,Z Vertex 4 {m}

OS:ShadingSurface,
  {aa5ab44d-fb32-41f7-8352-ac0a07f6f866}, !- Handle
  ShadingB2995W8815,                      !- Name
  ,                                       !- Construction Name
  {e1db4385-c777-4d32-9219-f302223cc142}, !- Shading Surface Group Name
  ,                                       !- Transmittance Schedule Name
  ,                                       !- Number of Vertices
  2.71464252471924, 259.085540771484, 25.9999980926514, !- X,Y,Z Vertex 1 {m}
  2.71464252471924, 259.085540771484, 21.6666650772095, !- X,Y,Z Vertex 2 {m}
  2.71464252471924, 278.2578125, 21.6666650772095, !- X,Y,Z Vertex 3 {m}
  2.71464252471924, 278.2578125, 25.9999980926514; !- X,Y,Z Vertex 4 {m}

OS:Material,
  {8822cfee-2b6b-423d-b963-24302e6818f7}, !- Handle
  LesosaiBTK B 1_M2,                      !- Name
  MediumSmooth,                           !- Roughness
  0.0001,                                 !- Thickness {m}
  0.2,                                    !- Conductivity {W/m-K}
  960,                                    !- Density {kg/m3}
  1400,                                   !- Specific Heat {J/kg-K}
  0.9,                                    !- Thermal Absorptance
  0.7,                                    !- Solar Absorptance
  0.7;                                    !- Visible Absorptance

OS:ShadingSurface,
  {2e404866-641b-4472-a299-93c8112b1609}, !- Handle
  ShadingB545W5190,                       !- Name
  ,                                       !- Construction Name
  {e1db4385-c777-4d32-9219-f302223cc142}, !- Shading Surface Group Name
  ,                                       !- Transmittance Schedule Name
  ,                                       !- Number of Vertices
  -219.376770019531, -222.478622436523, 8.27499961853028, !- X,Y,Z Vertex 1 {m}
  -219.376770019531, -222.478622436523, -5.68585020670664e-033, !- X,Y,Z Vertex 2 {m}
  -219.632431030273, -222.529998779297, -5.68585020670664e-033, !- X,Y,Z Vertex 3 {m}
  -219.632431030273, -222.529998779297, 8.27499961853027; !- X,Y,Z Vertex 4 {m}

OS:ShadingSurface,
  {a14fda87-0ead-45d1-95cb-bf2dd4954cd5}, !- Handle
  ShadingB3545W12026,                     !- Name
  ,                                       !- Construction Name
  {e1db4385-c777-4d32-9219-f302223cc142}, !- Shading Surface Group Name
  ,                                       !- Transmittance Schedule Name
  ,                                       !- Number of Vertices
  -206.644515991211, -19.4179172515869, 26.4888882107205, !- X,Y,Z Vertex 1 {m}
  -206.644515991211, -19.4179172515869, 23.1777771843804, !- X,Y,Z Vertex 2 {m}
  -202.980880737305, -19.4179172515869, 23.1777771843804, !- X,Y,Z Vertex 3 {m}
  -202.980880737305, -19.4179172515869, 26.4888882107205; !- X,Y,Z Vertex 4 {m}

OS:ShadingSurface,
  {750afd5d-7409-4466-88b3-67058845f155}, !- Handle
  ShadingB3252W10399,                     !- Name
  ,                                       !- Construction Name
  {e1db4385-c777-4d32-9219-f302223cc142}, !- Shading Surface Group Name
  ,                                       !- Transmittance Schedule Name
  ,                                       !- Number of Vertices
  94.4918365478516, -9.14374542236328, 18.9461534940279, !- X,Y,Z Vertex 1 {m}
  94.4918365478516, -9.14374542236328, 12.6307689960186, !- X,Y,Z Vertex 2 {m}
  69.4145202636719, -9.14374542236328, 12.6307689960186, !- X,Y,Z Vertex 3 {m}
  69.4145202636719, -9.14374542236328, 18.9461534940279; !- X,Y,Z Vertex 4 {m}

OS:ShadingSurface,
  {40b265b2-5806-41f8-8604-aeeaa244f90d}, !- Handle
  ShadingB2808W8032,                      !- Name
  ,                                       !- Construction Name
  {e1db4385-c777-4d32-9219-f302223cc142}, !- Shading Surface Group Name
  ,                                       !- Transmittance Schedule Name
  ,                                       !- Number of Vertices
  -280.561859130859, -258.889434814453, 24, !- X,Y,Z Vertex 1 {m}
  -280.561859130859, -258.889434814453, 18, !- X,Y,Z Vertex 2 {m}
  -282.066192626953, -257.796325683594, 18, !- X,Y,Z Vertex 3 {m}
  -282.066192626953, -257.796325683594, 24; !- X,Y,Z Vertex 4 {m}

OS:ShadingSurface,
  {e4c5904a-5224-4d61-822a-3c51842d5dbe}, !- Handle
  ShadingB2206W6737,                      !- Name
  ,                                       !- Construction Name
  {e1db4385-c777-4d32-9219-f302223cc142}, !- Shading Surface Group Name
  ,                                       !- Transmittance Schedule Name
  ,                                       !- Number of Vertices
  -230.669482492775, -297.469338326795, 38.9999644747823, !- X,Y,Z Vertex 1 {m}
  -230.659148506959, -297.457062112022, 35.9999989612482, !- X,Y,Z Vertex 2 {m}
  -230.632367136821, -298.51851678296, 36.0000010387518, !- X,Y,Z Vertex 3 {m}
  -230.64300407871, -298.518785161784, 38.9999632994237; !- X,Y,Z Vertex 4 {m}

OS:ShadingSurface,
  {76dde9bc-20d7-452b-8d85-a671e5aa97de}, !- Handle
  ShadingB123W2540,                       !- Name
  ,                                       !- Construction Name
  {e1db4385-c777-4d32-9219-f302223cc142}, !- Shading Surface Group Name
  ,                                       !- Transmittance Schedule Name
  ,                                       !- Number of Vertices
  -93.2055206298828, -186.360214233398, 42.1199993133545, !- X,Y,Z Vertex 1 {m}
  -93.2055206298828, -186.360214233398, 37.4399993896484, !- X,Y,Z Vertex 2 {m}
  -61.4454116821289, -186.376174926758, 37.4399993896484, !- X,Y,Z Vertex 3 {m}
  -61.4454116821289, -186.376174926758, 42.1199993133545; !- X,Y,Z Vertex 4 {m}

OS:ShadingSurface,
  {69d1f11d-1e0c-4301-98c8-c67338378004}, !- Handle
  ShadingB1173W6613,                      !- Name
  ,                                       !- Construction Name
  {e1db4385-c777-4d32-9219-f302223cc142}, !- Shading Surface Group Name
  ,                                       !- Transmittance Schedule Name
  ,                                       !- Number of Vertices
  -228.597274780273, -255.979934692383, 36, !- X,Y,Z Vertex 1 {m}
  -228.597274780273, -255.979934692383, 30, !- X,Y,Z Vertex 2 {m}
  -226.876159667969, -255.006591796875, 30, !- X,Y,Z Vertex 3 {m}
  -226.876159667969, -255.006591796875, 36; !- X,Y,Z Vertex 4 {m}

OS:ShadingSurface,
  {25f0b9e7-f089-4433-a149-f65baa269f0d}, !- Handle
  ShadingB1173W5980,                      !- Name
  ,                                       !- Construction Name
  {e1db4385-c777-4d32-9219-f302223cc142}, !- Shading Surface Group Name
  ,                                       !- Transmittance Schedule Name
  ,                                       !- Number of Vertices
  -245.25309753418, -259.785888671875, 36, !- X,Y,Z Vertex 1 {m}
  -245.25309753418, -259.785888671875, 30, !- X,Y,Z Vertex 2 {m}
  -236.140045166016, -258.623474121094, 30, !- X,Y,Z Vertex 3 {m}
  -236.140045166016, -258.623474121094, 36; !- X,Y,Z Vertex 4 {m}

OS:ShadingSurface,
  {0b59e003-46a3-4339-9108-58a0c1389f9a}, !- Handle
  ShadingB3429W10912,                     !- Name
  ,                                       !- Construction Name
  {e1db4385-c777-4d32-9219-f302223cc142}, !- Shading Surface Group Name
  ,                                       !- Transmittance Schedule Name
  ,                                       !- Number of Vertices
  -41.5306205749512, 124.54859161377, 33.1333363850911, !- X,Y,Z Vertex 1 {m}
  -41.5306205749512, 124.54859161377, 27.6111136542426, !- X,Y,Z Vertex 2 {m}
  -35.6622543334961, 124.54859161377, 27.6111136542426, !- X,Y,Z Vertex 3 {m}
  -35.6622543334961, 124.54859161377, 33.1333363850911; !- X,Y,Z Vertex 4 {m}

OS:ShadingSurface,