
OS:Version,
  {90497c86-d8ed-4235-8c53-8f40a65c2a2b}, !- Handle
  1.8.0;                                  !- Version Identifier

OS:SimulationControl,
  {b985b8b8-1858-4e79-9f0f-05f5b8cafe41}, !- Handle
  No,                                     !- Do Zone Sizing Calculation
  No,                                     !- Do System Sizing Calculation
  No,                                     !- Do Plant Sizing Calculation
  No,                                     !- Run Simulation for Sizing Periods
  Yes,                                    !- Run Simulation for Weather File Run Periods
  0.04,                                   !- Loads Convergence Tolerance Value
  0.004,                                  !- Temperature Convergence Tolerance Value {deltaC}
  FullExterior,                           !- Solar Distribution
  100,                                    !- Maximum Number of Warmup Days
  6;                                      !- Minimum Number of Warmup Days

OS:ShadingSurface,
  {fac08278-5487-4c4c-b04d-446fc1f4b473}, !- Handle
  ShadingB3923W9935,                      !- Name
  ,                                       !- Construction Name
  {54376afd-bef4-4941-90a2-9e698bf29d94}, !- Shading Surface Group Name
  ,                                       !- Transmittance Schedule Name
  ,                                       !- Number of Vertices
  -16.2788810729981, -83.2775268554687, 49, !- X,Y,Z Vertex 1 {m}
  -16.2788810729981, -83.2775268554687, 48.125, !- X,Y,Z Vertex 2 {m}
  -29.0697174072266, -76.0078125, 48.125, !- X,Y,Z Vertex 3 {m}
  -29.0697174072266, -76.0078125, 49;     !- X,Y,Z Vertex 4 {m}

OS:ShadingSurfaceGroup,
  {54376afd-bef4-4941-90a2-9e698bf29d94}, !- Handle
  {cfb63c3e-dd62-47a3-bde7-82c29960ef25}, !- Name
  Building;                               !- Shading Surface Type

OS:ShadingSurface,
  {ead627cb-ac11-4cc4-931d-1aa3a240e2fc}, !- Handle
  ShadingB797W5406,                       !- Name
  ,                                       !- Construction Name
  {54376afd-bef4-4941-90a2-9e698bf29d94}, !- Shading Surface Group Name
  ,                                       !- Transmittance Schedule Name
  ,                                       !- Number of Vertices
  -102.234741211, -68.6093063354, 35.7999992371, !- X,Y,Z Vertex 1 {m}
  -102.234741211, -68.6093063354, 0,      !- X,Y,Z Vertex 2 {m}
  -101.057861328, -68.6093063354, 0,      !- X,Y,Z Vertex 3 {m}
  -101.057861328, -68.6093063354, 35.7999992371; !- X,Y,Z Vertex 4 {m}

OS:Schedule:Compact,
  {3d641f3a-cd86-42f4-9750-977c355792c0}, !- Handle
  OccupationSchedule,                     !- Name
  {2e2d1a3f-0dbc-4f82-8995-9eb2894509ac}, !- Schedule Type Limits Name
  Through: 12/31,                         !- Field 1
  For: Weekdays,                          !- Field 2
  Until: 01:00,                           !- Field 3
  0.0000,                                 !- Field 4
  Until: 02:00,                           !- Field 5
  0.0000,                                 !- Field 6
  Until: 03:00,                           !- Field 7
  0.0000,                                 !- Field 8
  Until: 04:00,                           !- Field 9
  0.0000,                                 !- Field 10
  Until: 05:00,                           !- Field 11
  0.0000,                                 !- Field 12
  Until: 06:00,                           !- Field 13
  0.0000,                                 !- Field 14
  Until: 07:00,                           !- Field 15
  0.0000,                                 !- Field 16
  Until: 08:00,                           !- Field 17
  0.1000,                                 !- Field 18
  Until: 09:00,                           !- Field 19
  0.2000,                                 !- Field 20
  Until: 10:00,                           !- Field 21
  0.9500,                                 !- Field 22
  Until: 11:00,                           !- Field 23
  0.9500,                                 !- Field 24
  Until: 12:00,                           !- Field 25
  0.4500,                                 !- Field 26
  Until: 13:00,                           !- Field 27
  0.4500,                                 !- Field 28
  Until: 14:00,                           !- Field 29
  0.9500,                                 !- Field 30
  Until: 15:00,                           !- Field 31
  0.9500,                                 !- Field 32
  Until: 16:00,                           !- Field 33
  0.9500,                                 !- Field 34
  Until: 17:00,                           !- Field 35
  0.9500,                                 !- Field 36
  Until: 18:00,                           !- Field 37
  0.9500,                                 !- Field 38
  Until: 19:00,                           !- Field 39
  0.3000,                                 !- Field 40
  Until: 20:00,                           !- Field 41
  0.1000,                                 !- Field 42
  Until: 21:00,                           !- Field 43
  0.1000,                                 !- Field 44
  Until: 22:00,                           !- Field 45
  0.1000,                                 !- Field 46
  Until: 23:00,                           !- Field 47
  0.0000,                                 !- Field 48
  Until: 24:00,                           !- Field 49
  0.0000,                                 !- Field 50
  For: Weekends Holidays SummerDesignDay WinterDesignDay CustomDay1 CustomDay2, !- Field 51
  Until: 01:00,                           !- Field 52
  0.0000,                                 !- Field 53
  Until: 02:00,                           !- Field 54
  0.0000,                                 !- Field 55
  Until: 03:00,                           !- Field 56
  0.0000,                                 !- Field 57
  Until: 04:00,                           !- Field 58
  0.0000,                                 !- Field 59
  Until: 05:00,                           !- Field 60
  0.0000,                                 !- Field 61
  Until: 06:00,                           !- Field 62
  0.0000,                                 !- Field 63
  Until: 07:00,                           !- Field 64
  0.0000,                                 !- Field 65
  Until: 08:00,                           !- Field 66
  0.0000,                                 !- Field 67
  Until: 09:00,                           !- Field 68
  0.0500,                                 !- Field 69
  Until: 10:00,                           !- Field 70
  0.0500,                                 !- Field 71
  Until: 11:00,                           !- Field 72
  0.0500,                                 !- Field 73
  Until: 12:00,                           !- Field 74
  0.0500,                                 !- Field 75
  Until: 13:00,                           !- Field 76
  0.0500,                                 !- Field 77
  Until: 14:00,                           !- Field 78
  0.0500,                                 !- Field 79
  Until: 15:00,                           !- Field 80
  0.0500,                                 !- Field 81
  Until: 16:00,                           !- Field 82
  0.0500,                                 !- Field 83
  Until: 17:00,                           !- Field 84
  0.0500,                                 !- Field 85
  Until: 18:00,                           !- Field 86
  0.0500,                                 !- Field 87
  Until: 19:00,                           !- Field 88
  0.0000,                                 !- Field 89
  Until: 20:00,                           !- Field 90
  0.0000,                                 !- Field 91
  Until: 21:00,                           !- Field 92
  0.0000,                                 !- Field 93
  Until: 22:00,                           !- Field 94
  0.0000,                                 !- Field 95
  Until: 23:00,                           !- Field 96
  0.0000,                                 !- Field 97
  Until: 24:00,                           !- Field 98
  0.0000;                                 !- Field 99

OS:ScheduleTypeLimits,
  {2e2d1a3f-0dbc-4f82-8995-9eb2894509ac}, !- Handle
  Fraction,                               !- Name
  0,                                      !- Lower Limit Value {BasedOnField A4}
  1,                                      !- Upper Limit Value {BasedOnField A4}
  Continuous,                             !- Numeric Type
  Dimensionless;                          !- Unit Type

OS:ShadingSurface,
  {bc6b25d5-38c4-43ab-840a-d897af1743f7}, !- Handle
  ShadingB398W2919,                       !- Name
  ,                                       !- Construction Name
  {54376afd-bef4-4941-90a2-9e698bf29d94}, !- Shading Surface Group Name
  ,                                       !- Transmittance Schedule Name
  ,                                       !- Number of Vertices
  -260.333953857, -53.0442581177, 33.8000005086, !- X,Y,Z Vertex 1 {m}
  -260.333953857, -53.0442581177, 0,      !- X,Y,Z Vertex 2 {m}
  -235.623138428, -53.0442581177, 0,      !- X,Y,Z Vertex 3 {m}
  -235.623138428, -53.0442581177, 33.8000005086; !- X,Y,Z Vertex 4 {m}

OS:ShadingSurface,
  {71f0b71c-2548-435f-8b1f-f30f7e471f97}, !- Handle
  ShadingB797W5596,                       !- Name
  ,                                       !- Construction Name
  {54376afd-bef4-4941-90a2-9e698bf29d94}, !- Shading Surface Group Name
  ,                                       !- Transmittance Schedule Name
  ,                                       !- Number of Vertices
  -62.3872489929, -17.2289657593, 32.7999992371, !- X,Y,Z Vertex 1 {m}
  -62.3872489929, -17.2289657593, 0,      !- X,Y,Z Vertex 2 {m}
  -62.3872489929, -4.30924987793, 0,      !- X,Y,Z Vertex 3 {m}
  -62.3872489929, -4.30924987793, 32.7999992371; !- X,Y,Z Vertex 4 {m}

OS:ShadingSurface,
  {933ef4bf-4794-4e25-b748-d34ed69e164d}, !- Handle
  ShadingB398R125,                        !- Name
  ,                                       !- Construction Name
  {54376afd-bef4-4941-90a2-9e698bf29d94}, !- Shading Surface Group Name
  ,                                       !- Transmittance Schedule Name
  ,                                       !- Number of Vertices
  -212.272262573242, -53.0442581176758, 42.7999954223633, !- X,Y,Z Vertex 1 {m}
  -212.272262573242, 24.9009246826172, 42.7999954223633, !- X,Y,Z Vertex 2 {m}
  -242.096618652344, 24.9009246826172, 42.7999954223633, !- X,Y,Z Vertex 3 {m}
  -242.096618652344, -32.7829437255859, 42.7999954223633, !- X,Y,Z Vertex 4 {m}
  -232.312530517578, -32.7829437255859, 42.7999954223633, !- X,Y,Z Vertex 5 {m}
  -232.312530517578, -23.1641998291016, 42.7999954223633, !- X,Y,Z Vertex 6 {m}
  -221.871246337891, -23.1641998291016, 42.7999954223633, !- X,Y,Z Vertex 7 {m}
  -222.023590087891, -4.69343566894531, 42.7999954223633, !- X,Y,Z Vertex 8 {m}
  -232.326110839844, -4.69343566894531, 42.7999954223633, !- X,Y,Z Vertex 9 {m}
  -232.326110839844, 15.0577392578125, 42.7999954223633, !- X,Y,Z Vertex 10 {m}
  -222.023590087891, 15.0577392578125, 42.7999954223633, !- X,Y,Z Vertex 11 {m}
  -222.023590087891, -4.69343566894531, 42.7999954223633, !- X,Y,Z Vertex 12 {m}
  -221.871246337891, -23.1641998291016, 42.7999954223633, !- X,Y,Z Vertex 13 {m}
  -221.871246337891, -49.4262390136719, 42.7999954223633, !- X,Y,Z Vertex 14 {m}
  -260.333953857422, -49.4262390136719, 42.7999954223633, !- X,Y,Z Vertex 15 {m}
  -260.333953857422, -53.0442581176758, 42.7999954223633; !- X,Y,Z Vertex 16 {m}

OS:Output:Variable,
  {8b124bf0-6a6d-4964-852f-85ce4188f04d}, !- Handle
  {4642b90d-5713-47ab-b1d3-07526be296cf}, !- Name
  *,                                      !- Key Value
  Lights Total Heating Energy,            !- Variable Name
  RunPeriod;                              !- Reporting Frequency

OS:ShadingSurface,
  {601a5e08-1674-41aa-9b00-6cb2cfac5bfb}, !- Handle
  ShadingB3923W9619,                      !- Name
  ,                                       !- Construction Name
  {54376afd-bef4-4941-90a2-9e698bf29d94}, !- Shading Surface Group Name
  ,                                       !- Transmittance Schedule Name
  ,                                       !- Number of Vertices
  21.8820114135742, -110.984840393066, 41.25, !- X,Y,Z Vertex 1 {m}
  21.8820114135742, -110.984840393066, 34.375, !- X,Y,Z Vertex 2 {m}
  45.3828582763672, -110.984840393066, 34.375, !- X,Y,Z Vertex 3 {m}
  45.3828582763672, -110.984840393066, 39, !- X,Y,Z Vertex 4 {m}
  50.8443756103516, -110.984840393066, 39, !- X,Y,Z Vertex 5 {m}
  50.8443756103516, -110.984840393066, 34.375, !- X,Y,Z Vertex 6 {m}
  58.0769271850586, -110.984840393066, 34.375, !- X,Y,Z Vertex 7 {m}
  58.0769271850586, -110.984840393066, 39.2000007629395, !- X,Y,Z Vertex 8 {m}
  83.3605194091797, -110.984840393066, 39.2000007629395, !- X,Y,Z Vertex 9 {m}
  83.3605194091797, -110.984840393066, 41.25; !- X,Y,Z Vertex 10 {m}

OS:ShadingSurface,
  {b4934f75-738d-4efc-b229-dcf9f4363b23}, !- Handle
  ShadingB123W2389,                       !- Name
  ,                                       !- Construction Name
  {54376afd-bef4-4941-90a2-9e698bf29d94}, !- Shading Surface Group Name
  ,                                       !- Transmittance Schedule Name
  ,                                       !- Number of Vertices
  21.8876953125, -271.585876465, 46.7999992371, !- X,Y,Z Vertex 1 {m}
  21.8876953125, -271.585876465, 0,       !- X,Y,Z Vertex 2 {m}
  21.930557251, -186.272964478, 0,        !- X,Y,Z Vertex 3 {m}
  21.930557251, -186.272964478, 46.7999992371; !- X,Y,Z Vertex 4 {m}

OS:ShadingSurface,
  {20567785-d91e-454a-80d9-bc339c079979}, !- Handle
  ShadingB3923W9745,                      !- Name
  ,                                       !- Construction Name
  {54376afd-bef4-4941-90a2-9e698bf29d94}, !- Shading Surface Group Name
  ,                                       !- Transmittance Schedule Name
  ,                                       !- Number of Vertices
  -61.6537132263, -109.734436035, 49,     !- X,Y,Z Vertex 1 {m}
  -61.6537132263, -109.734436035, 34.375, !- X,Y,Z Vertex 2 {m}
  -29.2093925476, -128.46572876, 34.375,  !- X,Y,Z Vertex 3 {m}
  -29.2093925476, -128.46572876, 49;      !- X,Y,Z Vertex 4 {m}

OS:ShadingSurface,
  {e793c8e9-4713-4cbe-95e1-0fef28509698}, !- Handle
  ShadingB3923W9986,                      !- Name
  ,                                       !- Construction Name
  {54376afd-bef4-4941-90a2-9e698bf29d94}, !- Shading Surface Group Name
  ,                                       !- Transmittance Schedule Name
  ,                                       !- Number of Vertices
  -29.2093925476, -128.46572876, 41.25,   !- X,Y,Z Vertex 1 {m}
  -29.2093925476, -128.46572876, 0,       !- X,Y,Z Vertex 2 {m}
  -23.5018539429, -125.189826965, 0,      !- X,Y,Z Vertex 3 {m}
  -23.5018539429, -125.189826965, 41.25;  !- X,Y,Z Vertex 4 {m}

OS:ShadingSurface,
  {2849b11e-2a26-4fdf-af88-e7ca6a9e4130}, !- Handle
  ShadingB398R371,                        !- Name
  ,                                       !- Construction Name
  {54376afd-bef4-4941-90a2-9e698bf29d94}, !- Shading Surface Group Name
  ,                                       !- Transmittance Schedule Name
  ,                                       !- Number of Vertices
  -242.004669189453, -125.025115966797, 34.7999992370605, !- X,Y,Z Vertex 1 {m}
  -242.004669189453, -114.835380554199, 34.7999992370605, !- X,Y,Z Vertex 2 {m}
  -250.583358764648, -114.835380554199, 34.7999992370605, !- X,Y,Z Vertex 3 {m}
  -250.583358764648, -91.2865295410156, 34.7999992370605, !- X,Y,Z Vertex 4 {m}
  -222.621673583984, -91.2865295410156, 34.7999992370605, !- X,Y,Z Vertex 5 {m}
  -222.621673583984, -61.7865295410156, 34.7999992370605, !- X,Y,Z Vertex 6 {m}
  -203.164001464844, -61.7865295410156, 34.7999992370605, !- X,Y,Z Vertex 7 {m}
  -203.164001464844, -46.2143173217773, 34.7999992370605, !- X,Y,Z Vertex 8 {m}
  -212.272262573242, -46.2143173217773, 34.7999992370605, !- X,Y,Z Vertex 9 {m}
  -212.272262573242, -53.0442581176758, 34.7999992370605, !- X,Y,Z Vertex 10 {m}
  -235.623138427734, -53.0442581176758, 34.7999992370605, !- X,Y,Z Vertex 11 {m}
  -235.623138427734, -87.5866622924805, 34.7999992370605, !- X,Y,Z Vertex 12 {m}
  -260.333953857422, -87.5866622924805, 34.7999992370605, !- X,Y,Z Vertex 13 {m}
  -260.333953857422, -120.260200500488, 34.7999992370605, !- X,Y,Z Vertex 14 {m}
  -250.583358764648, -120.260200500488, 34.7999992370605, !- X,Y,Z Vertex 15 {m}
  -250.583358764648, -125.025115966797, 34.7999992370605; !- X,Y,Z Vertex 16 {m}

OS:Building,
  {b075c168-b24e-4d7a-9e29-539194404669}, !- Handle
  HPI,                                    !- Name
  ,                                       !- Building Sector Type
  0,                                      !- North Axis {deg}
  ,                                       !- Nominal Floor to Floor Height {m}
  ,                                       !- Space Type Name
  ,                                       !- Default Construction Set Name
  ,                                       !- Default Schedule Set Name
  ,                                       !- Standards Number of Stories
  ,                                       !- Standards Number of Above Ground Stories
  ,                                       !- Standards Building Type
  ,                                       !- Standards Number of Living Units
  ,                                       !- Relocatable
  ;                                       !- Nominal Floor to Ceiling Height {m}

OS:ShadingSurface,
  {3d076d27-5f3b-4a88-b0b0-5d274bbc0728}, !- Handle
  ShadingB398R240,                        !- Name
  ,                                       !- Construction Name
  {54376afd-bef4-4941-90a2-9e698bf29d94}, !- Shading Surface Group Name
  ,                                       !- Transmittance Schedule Name
  ,                                       !- Number of Vertices
  -270.290069580078, -110.394332885742, 50.7000007629395, !- X,Y,Z Vertex 1 {m}
  -270.290069580078, -90.648323059082, 50.7000007629395, !- X,Y,Z Vertex 2 {m}
  -280.536376953125, -90.648323059082, 50.7000007629395, !- X,Y,Z Vertex 3 {m}
  -280.536376953125, -110.394332885742, 50.7000007629395; !- X,Y,Z Vertex 4 {m}

OS:Output:Variable,
  {12b6ce65-615d-4cf1-81a2-90c3acebd6f2}, !- Handle
  {361f9bc1-74a6-43cd-a993-451b1c6f1198}, !- Name
  *,                                      !- Key Value
  Zone Ideal Loads Zone Sensible Cooling Energy, !- Variable Name
  timestep;                               !- Reporting Frequency

OS:ShadingSurface,
  {97a6af9f-c6cc-48ba-be32-3e40ac45449a}, !- Handle
  ShadingB797W5375,                       !- Name
  ,                                       !- Construction Name
  {54376afd-bef4-4941-90a2-9e698bf29d94}, !- Shading Surface Group Name
  ,                                       !- Transmittance Schedule Name
  ,                                       !- Number of Vertices
  -113.834838867188, 32.7486953735352, 44.6222229003906, !- X,Y,Z Vertex 1 {m}
  -113.834838867188, 32.7486953735352, 42.7000007629395, !- X,Y,Z Vertex 2 {m}
  -113.040245056152, 32.7486953735352, 42.7000007629395, !- X,Y,Z Vertex 3 {m}
  -113.040245056152, 32.7486953735352, 44.6222229003906; !- X,Y,Z Vertex 4 {m}

OS:Material,
  {fb1e5161-7448-4ca8-af7a-3e061f982a88}, !- Handle
  MaterialsDB W 12 2_M3,                  !- Name
  MediumSmooth,                           !- Roughness
  0.05,                                   !- Thickness {m}
  2.3,                                    !- Conductivity {W/m-K}
  2300,                                   !- Density {kg/m3}
  1000,                                   !- Specific Heat {J/kg-K}
  0.9,                                    !- Thermal Absorptance
  0.7,                                    !- Solar Absorptance
  0.7;                                    !- Visible Absorptance

OS:ShadingSurface,
  {845665c0-0368-4d2c-b3e7-556e4615be31}, !- Handle
  ShadingB3923W9447,                      !- Name
  ,                                       !- Construction Name
  {54376afd-bef4-4941-90a2-9e698bf29d94}, !- Shading Surface Group Name
  ,                                       !- Transmittance Schedule Name
  ,                                       !- Number of Vertices
  83.3605194092, -100.045837402, 43,      !- X,Y,Z Vertex 1 {m}
  83.3605194092, -100.045837402, 0,       !- X,Y,Z Vertex 2 {m}
  63.2465515137, -100.060905457, 0,       !- X,Y,Z Vertex 3 {m}
  63.2465515137, -100.060905457, 43;      !- X,Y,Z Vertex 4 {m}

OS:ShadingSurface,
  {6ecce4dd-8b0e-4ffb-ad4c-13a69908d1e1}, !- Handle
  ShadingB398W232,                        !- Name
  ,                                       !- Construction Name
  {54376afd-bef4-4941-90a2-9e698bf29d94}, !- Shading Surface Group Name
  ,                                       !- Transmittance Schedule Name
  ,                                       !- Number of Vertices
  -280.536376953125, -90.648323059082, 50.7000007629395, !- X,Y,Z Vertex 1 {m}
  -280.536376953125, -90.648323059082, 46.7999992370605, !- X,Y,Z Vertex 2 {m}
  -280.536376953125, -110.394332885742, 46.7999992370605, !- X,Y,Z Vertex 3 {m}
  -280.536376953125, -110.394332885742, 50.7000007629395; !- X,Y,Z Vertex 4 {m}

OS:Surface,
  {a7bad4ce-9e48-4263-957b-2276dcaa2f0f}, !- Handle
  Wall99114232,                           !- Name
  Wall,                                   !- Surface Type
  {386f7e40-443a-4df0-9ac2-b39ac5cbe366}, !- Construction Name
  {2199d41a-46e9-423a-bad3-bb4bf344a16f}, !- Space Name
  Outdoors,                               !- Outside Boundary Condition
  ,                                       !- Outside Boundary Condition Object
  SunExposed,                             !- Sun Exposure
  WindExposed,                            !- Wind Exposure
  ,                                       !- View Factor to Ground
  ,                                       !- Number of Vertices
  -144.362335205078, -46.0463600158691, 28, !- X,Y,Z Vertex 1 {m}
  -144.362335205078, -46.0463600158691, 27.4399993896484, !- X,Y,Z Vertex 2 {m}
  -149.903747558594, -46.0463600158691, 27.4399993896484, !- X,Y,Z Vertex 3 {m}
  -149.903747558594, -46.0463600158691, 28; !- X,Y,Z Vertex 4 {m}

OS:Construction,
  {386f7e40-443a-4df0-9ac2-b39ac5cbe366}, !- Handle
  MaterialsDB Mur inner insulation,       !- Name
  {bd5c36db-52ad-4ef5-9163-85663475240c}, !- Surface Rendering Name
  {6165524b-9f16-465b-88ac-081b5f924ecf}, !- Layer 1
  {39c3f31d-c07f-4b29-996e-a9ca52839435}, !- Layer 2
  {964f361a-20a5-49b9-b4a5-60dede8bd627}, !- Layer 3
  {088cb3d6-5200-467d-bfe2-f1f6245565c7}, !- Layer 4
  {efeb599c-affc-41bf-a5f0-78be7cc484cb}, !- Layer 5
  {94d5aaa4-2f17-4197-aac3-e20f33f0d40a}, !- Layer 6
  {96713d8e-5151-4af4-9869-44a0929ad698}; !- Layer 7

OS:Material,
  {6165524b-9f16-465b-88ac-081b5f924ecf}, !- Handle
  MaterialsDB Mur inner insulation_M0,    !- Name
  MediumSmooth,                           !- Roughness
  0.01,                                   !- Thickness {m}
  0.58,                                   !- Conductivity {W/m-K}
  1200,                                   !- Density {kg/m3}
  900,                                    !- Specific Heat {J/kg-K}
  0.9,                                    !- Thermal Absorptance
  0.7,                                    !- Solar Absorptance
  0.7;                                    !- Visible Absorptance

OS:Material,
  {39c3f31d-c07f-4b29-996e-a9ca52839435}, !- Handle
  MaterialsDB Mur inner insulation_M1,    !- Name
  MediumSmooth,                           !- Roughness
  0.04,                                   !- Thickness {m}
  0.47,                                   !- Conductivity {W/m-K}
  1200,                                   !- Density {kg/m3}
  900,                                    !- Specific Heat {J/kg-K}
  0.9,                                    !- Thermal Absorptance
  0.7,                                    !- Solar Absorptance
  0.7;                                    !- Visible Absorptance

OS:Material,
  {964f361a-20a5-49b9-b4a5-60dede8bd627}, !- Handle
  MaterialsDB Mur inner insulation_M2,    !- Name
  MediumSmooth,                           !- Roughness
  0.0005,                                 !- Thickness {m}
  0.2,                                    !- Conductivity {W/m-K}
  1000,                                   !- Density {kg/m3}
  1400.4,                                 !- Specific Heat {J/kg-K}
  0.9,                                    !- Thermal Absorptance
  0.7,                                    !- Solar Absorptance
  0.7;                                    !- Visible Absorptance

OS:Material,
  {088cb3d6-5200-467d-bfe2-f1f6245565c7}, !- Handle
  MaterialsDB Mur inner insulation_M3,    !- Name
  MediumSmooth,                           !- Roughness
  0.06,                                   !- Thickness {m}
  0.044,                                  !- Conductivity {W/m-K}
  15,                                     !- Density {kg/m3}
  601.2,                                  !- Specific Heat {J/kg-K}
  0.9,                                    !- Thermal Absorptance
  0.7,                                    !- Solar Absorptance
  0.7;                                    !- Visible Absorptance

OS:Material,
  {efeb599c-affc-41bf-a5f0-78be7cc484cb}, !- Handle
  MaterialsDB Mur inner insulation_M4,    !- Name
  MediumSmooth,                           !- Roughness
  0.15,                                   !- Thickness {m}
  0.7,                                    !- Conductivity {W/m-K}
  1200,                                   !- Density {kg/m3}
  1100,                                   !- Specific Heat {J/kg-K}
  0.9,                                    !- Thermal Absorptance
  0.7,                                    !- Solar Absorptance
  0.7;                                    !- Visible Absorptance

OS:Material,
  {94d5aaa4-2f17-4197-aac3-e20f33f0d40a}, !- Handle
  MaterialsDB Mur inner insulation_M5,    !- Name
  MediumSmooth,                           !- Roughness
  0.02,                                   !- Thickness {m}
  0.87,                                   !- Conductivity {W/m-K}
  1800,                                   !- Density {kg/m3}
  1101.6,                                 !- Specific Heat {J/kg-K}
  0.9,                                    !- Thermal Absorptance
  0.7,                                    !- Solar Absorptance
  0.7;                                    !- Visible Absorptance

OS:Material,
  {96713d8e-5151-4af4-9869-44a0929ad698}, !- Handle
  MaterialsDB Mur inner insulation_M6,    !- Name
  MediumSmooth,                           !- Roughness
  0.0003,                                 !- Thickness {m}
  0.2,                                    !- Conductivity {W/m-K}
  1100,                                   !- Density {kg/m3}
  1400,                                   !- Specific Heat {J/kg-K}
  0.9,                                    !- Thermal Absorptance
  0.7,                                    !- Solar Absorptance
  0.7;                                    !- Visible Absorptance

OS:ThermalZone,
  {cae0a5ad-07d3-4aeb-8050-d353ffaaf39e}, !- Handle
  Zone11466 Thermal Zone,                 !- Name
  1,                                      !- Multiplier
  ,                                       !- Ceiling Height {m}
  ,                                       !- Volume {m3}
  ,                                       !- Floor Area {m2}
  ,                                       !- Zone Inside Convection Algorithm
  ,                                       !- Zone Outside Convection Algorithm
  ,                                       !- Zone Conditioning Equipment List Name
  {78cf0817-480b-485e-9561-49d945cd8ab6}, !- Zone Air Inlet Port List
  {bce9b15d-b6c2-4816-a0c0-fcc7dccbd169}, !- Zone Air Exhaust Port List
  {4a1593ed-4c7a-4069-af5e-215855128c5a}, !- Zone Air Node Name
  ,                                       !- Zone Return Air Node Name
  ,                                       !- Primary Daylighting Control Name
  ,                                       !- Fraction of Zone Controlled by Primary Daylighting Control
  ,                                       !- Secondary Daylighting Control Name
  ,                                       !- Fraction of Zone Controlled by Secondary Daylighting Control
  ,                                       !- Illuminance Map Name
  {1188b2f6-3e7c-4015-a6bd-c4262f0f8ddf}, !- Group Rendering Name
  {d3370e7a-589f-405f-99c7-9e578d7d453c}, !- Thermostat Name
  No;                                     !- Use Ideal Air Loads

OS:Node,
  {3cc82f52-afdc-480b-817d-a8fd8da3f852}, !- Handle
  {cfd009e9-0091-4f17-b2b3-367ff92ef756}, !- Name
  {4a1593ed-4c7a-4069-af5e-215855128c5a}, !- Inlet Port
  ;                                       !- Outlet Port

OS:Connection,
  {4a1593ed-4c7a-4069-af5e-215855128c5a}, !- Handle
  {990902a0-e097-427b-a446-8d938e096e0d}, !- Name
  {cae0a5ad-07d3-4aeb-8050-d353ffaaf39e}, !- Source Object
  11,                                     !- Outlet Port
  {3cc82f52-afdc-480b-817d-a8fd8da3f852}, !- Target Object
  2;                                      !- Inlet Port

OS:PortList,
  {78cf0817-480b-485e-9561-49d945cd8ab6}, !- Handle
  {a542a9fe-288b-4160-a0a2-4627f6ade20b}, !- Name
  {cae0a5ad-07d3-4aeb-8050-d353ffaaf39e}; !- HVAC Component

OS:PortList,
  {bce9b15d-b6c2-4816-a0c0-fcc7dccbd169}, !- Handle
  {a2c09cf3-6032-4cfe-bff4-8a6d6e6f9459}, !- Name
  {cae0a5ad-07d3-4aeb-8050-d353ffaaf39e}; !- HVAC Component

OS:Sizing:Zone,
  {69d2497b-4a37-4a66-b6ad-65c88f62226f}, !- Handle
  {cae0a5ad-07d3-4aeb-8050-d353ffaaf39e}, !- Zone or ZoneList Name
  14,                                     !- Zone Cooling Design Supply Air Temperature {C}
  40,                                     !- Zone Heating Design Supply Air Temperature {C}
  0.0085,                                 !- Zone Cooling Design Supply Air Humidity Ratio {kg-H2O/kg-air}