
OS:Version,
  {b4ca45cb-c47b-427f-98c7-b8ad703abaa8}, !- Handle
  1.8.0;                                  !- Version Identifier

OS:SimulationControl,
  {d0c34430-7ad6-4f96-a469-3e233aa95e78}, !- Handle
  No,                                     !- Do Zone Sizing Calculation
  No,                                     !- Do System Sizing Calculation
  No,                                     !- Do Plant Sizing Calculation
  No,                                     !- Run Simulation for Sizing Periods
  Yes,                                    !- Run Simulation for Weather File Run Periods
  0.04,                                   !- Loads Convergence Tolerance Value
  0.004,                                  !- Temperature Convergence Tolerance Value {deltaC}
  FullExterior,                           !- Solar Distribution
  100,                                    !- Maximum Number of Warmup Days
  6;                                      !- Minimum Number of Warmup Days

OS:ShadingSurface,
  {1be1f9f4-9fa8-4c9f-85f8-c25b04d215ef}, !- Handle
  ShadingB797W5521,                       !- Name
  ,                                       !- Construction Name
  {d2ed8079-ff95-442d-b2be-527df7f4b5ba}, !- Shading Surface Group Name
  ,                                       !- Transmittance Schedule Name
  ,                                       !- Number of Vertices
  -113.834838867188, 40.4558029174805, 44.6222229003906, !- X,Y,Z Vertex 1 {m}
  -113.834838867188, 40.4558029174805, 42.7000007629395, !- X,Y,Z Vertex 2 {m}
  -113.834838867188, 32.7486953735352, 42.7000007629395, !- X,Y,Z Vertex 3 {m}
  -113.834838867188, 32.7486953735352, 44.6222229003906; !- X,Y,Z Vertex 4 {m}

OS:ShadingSurfaceGroup,
  {d2ed8079-ff95-442d-b2be-527df7f4b5ba}, !- Handle
  {711888f4-fa69-4844-9174-c0b3260a4faf}, !- Name
  Building,                               !- Shading Surface Type
  ,                                       !- Space Name
  ,                                       !- Direction of Relative North {deg}
  ,                                       !- X Origin {m}
  ,                                       !- Y Origin {m}
  ,                                       !- Z Origin {m}
  ;                                       !- Shaded Object Name

OS:ShadingSurface,
  {c8e13ac4-f784-4eeb-94c6-734a9f97152b}, !- Handle
  ShadingB123W2794,                       !- Name
  ,                                       !- Construction Name
  {d2ed8079-ff95-442d-b2be-527df7f4b5ba}, !- Shading Surface Group Name
  ,                                       !- Transmittance Schedule Name
  ,                                       !- Number of Vertices
  -150.701324462891, -186.276184082031, 37.4399993896484, !- X,Y,Z Vertex 1 {m}
  -150.701324462891, -186.276184082031, 32.7599994659424, !- X,Y,Z Vertex 2 {m}
  -119.177490234375, -186.292022705078, 32.7599994659424, !- X,Y,Z Vertex 3 {m}
  -119.177490234375, -186.292022705078, 37.4399993896484; !- X,Y,Z Vertex 4 {m}

OS:ShadingSurface,
  {9f414bf8-acaf-448b-83a8-3070173f0956}, !- Handle
  ShadingB398W3499,                       !- Name
  ,                                       !- Construction Name
  {d2ed8079-ff95-442d-b2be-527df7f4b5ba}, !- Shading Surface Group Name
  ,                                       !- Transmittance Schedule Name
  ,                                       !- Number of Vertices
  -250.583358764648, -125.025115966797, 11.2666668362088, !- X,Y,Z Vertex 1 {m}
  -250.583358764648, -125.025115966797, 5.63333341810438, !- X,Y,Z Vertex 2 {m}
  -242.004669189453, -125.025115966797, 5.63333341810439, !- X,Y,Z Vertex 3 {m}
  -242.004669189453, -125.025115966797, 11.2666668362088; !- X,Y,Z Vertex 4 {m}

OS:ShadingSurface,
  {b5148011-dd55-4c25-85b9-de5cdebf430c}, !- Handle
  ShadingB3923W3656,                      !- Name
  ,                                       !- Construction Name
  {d2ed8079-ff95-442d-b2be-527df7f4b5ba}, !- Shading Surface Group Name
  ,                                       !- Transmittance Schedule Name
  ,                                       !- Number of Vertices
  -4.89778900146484, -29.8372192382813, 34.9000015258789, !- X,Y,Z Vertex 1 {m}
  -4.89778900146484, -29.8372192382813, 34.5, !- X,Y,Z Vertex 2 {m}
  -4.89778900146484, -56.4503784179688, 34.5, !- X,Y,Z Vertex 3 {m}
  -4.89778900146484, -56.4503784179688, 34.9000015258789; !- X,Y,Z Vertex 4 {m}

OS:ShadingSurface,
  {cc07bc72-ee59-430d-bbb6-513281cf6034}, !- Handle
  ShadingB3923W9970,                      !- Name
  ,                                       !- Construction Name
  {d2ed8079-ff95-442d-b2be-527df7f4b5ba}, !- Shading Surface Group Name
  ,                                       !- Transmittance Schedule Name
  ,                                       !- Number of Vertices
  -16.3067626953125, -121.060134887695, 49, !- X,Y,Z Vertex 1 {m}
  -16.3067626953125, -121.060134887695, 48.125, !- X,Y,Z Vertex 2 {m}
  -16.2788810729981, -83.2775268554687, 48.125, !- X,Y,Z Vertex 3 {m}
  -16.2788810729981, -83.2775268554687, 49; !- X,Y,Z Vertex 4 {m}

OS:ShadingSurface,
  {20a6ec06-97ca-4491-8b7d-8927d4ffd563}, !- Handle
  ShadingB3923W9462,                      !- Name
  ,                                       !- Construction Name
  {d2ed8079-ff95-442d-b2be-527df7f4b5ba}, !- Shading Surface Group Name
  ,                                       !- Transmittance Schedule Name
  ,                                       !- Number of Vertices
  21.8820114135742, -112.920112609863, 13.75, !- X,Y,Z Vertex 1 {m}
  21.8820114135742, -112.920112609863, 6.875, !- X,Y,Z Vertex 2 {m}
  21.8820114135742, -110.984840393066, 6.875, !- X,Y,Z Vertex 3 {m}
  21.8820114135742, -110.984840393066, 13.75; !- X,Y,Z Vertex 4 {m}

OS:ShadingSurface,
  {ea82e7bb-5587-418a-af04-b053ce94bce1}, !- Handle
  ShadingB3923W9833,                      !- Name
  ,                                       !- Construction Name
  {d2ed8079-ff95-442d-b2be-527df7f4b5ba}, !- Shading Surface Group Name
  ,                                       !- Transmittance Schedule Name
  ,                                       !- Number of Vertices
  -15.4975776672363, -75.0550994873047, 34.375, !- X,Y,Z Vertex 1 {m}
  -15.4975776672363, -75.0550994873047, 27.5, !- X,Y,Z Vertex 2 {m}
  -23.6163711547852, -79.1072387695313, 27.5, !- X,Y,Z Vertex 3 {m}
  -23.6163711547852, -79.1072387695313, 34.375; !- X,Y,Z Vertex 4 {m}

OS:ShadingSurface,
  {e8eb1bd8-c032-4c9c-a5d9-c0c57a540524}, !- Handle
  ShadingB3923W9644,                      !- Name
  ,                                       !- Construction Name
  {d2ed8079-ff95-442d-b2be-527df7f4b5ba}, !- Shading Surface Group Name
  ,                                       !- Transmittance Schedule Name
  ,                                       !- Number of Vertices
  -29.0697174072266, -76.0078125, 27.5,   !- X,Y,Z Vertex 1 {m}
  -29.0697174072266, -76.0078125, 20.625, !- X,Y,Z Vertex 2 {m}
  -52.3929214477539, -89.6110076904297, 20.625, !- X,Y,Z Vertex 3 {m}
  -52.3929214477539, -89.6110076904297, 27.5; !- X,Y,Z Vertex 4 {m}

OS:ShadingSurface,
  {e8b44a4a-7f28-4291-af58-4ce2ec91b736}, !- Handle
  ShadingB398W2827,                       !- Name
  ,                                       !- Construction Name
  {d2ed8079-ff95-442d-b2be-527df7f4b5ba}, !- Shading Surface Group Name
  ,                                       !- Transmittance Schedule Name
  ,                                       !- Number of Vertices
  -212.272262573242, 24.9009246826172, 22.5333336724175, !- X,Y,Z Vertex 1 {m}
  -212.272262573242, 24.9009246826172, 16.9000002543131, !- X,Y,Z Vertex 2 {m}
  -242.096618652344, 24.9009246826172, 16.9000002543131, !- X,Y,Z Vertex 3 {m}
  -242.096618652344, 24.9009246826172, 22.5333336724175; !- X,Y,Z Vertex 4 {m}

OS:ShadingSurface,
  {357ac442-b31c-43f8-8f5e-39e99559a06e}, !- Handle
  ShadingB3923W9242,                      !- Name
  ,                                       !- Construction Name
  {d2ed8079-ff95-442d-b2be-527df7f4b5ba}, !- Shading Surface Group Name
  ,                                       !- Transmittance Schedule Name
  ,                                       !- Number of Vertices
  83.3605194091797, -113.733436584473, 46, !- X,Y,Z Vertex 1 {m}
  83.3605194091797, -113.733436584473, 41.25, !- X,Y,Z Vertex 2 {m}
  90.3381805419922, -113.733436584473, 41.25, !- X,Y,Z Vertex 3 {m}
  90.3381805419922, -113.733436584473, 46; !- X,Y,Z Vertex 4 {m}

OS:ShadingSurface,
  {94b492e6-fac2-4699-8158-82340d56e415}, !- Handle
  ShadingB838W5941,                       !- Name
  ,                                       !- Construction Name
  {d2ed8079-ff95-442d-b2be-527df7f4b5ba}, !- Shading Surface Group Name
  ,                                       !- Transmittance Schedule Name
  ,                                       !- Number of Vertices
  -160.060455322266, 34.1251602172852, 33.2888861762153, !- X,Y,Z Vertex 1 {m}
  -160.060455322266, 34.1251602172852, 29.1277754041884, !- X,Y,Z Vertex 2 {m}
  -149.480087280273, 34.1251602172852, 29.1277754041884, !- X,Y,Z Vertex 3 {m}
  -149.480087280273, 34.1251602172852, 33.2888861762153; !- X,Y,Z Vertex 4 {m}

OS:ShadingSurface,
  {af32a598-88d5-4a64-bba3-759284f90d10}, !- Handle
  ShadingB797W5532,                       !- Name
  ,                                       !- Construction Name
  {d2ed8079-ff95-442d-b2be-527df7f4b5ba}, !- Shading Surface Group Name
  ,                                       !- Transmittance Schedule Name
  ,                                       !- Number of Vertices
  -78.8824005126953, -4.30924987792969, 16.7333335876465, !- X,Y,Z Vertex 1 {m}
  -78.8824005126953, -4.30924987792969, 11.1555557250977, !- X,Y,Z Vertex 2 {m}
  -78.8824005126953, -11.2289657592773, 11.1555557250977, !- X,Y,Z Vertex 3 {m}
  -78.8824005126953, -11.2289657592773, 16.7333335876465; !- X,Y,Z Vertex 4 {m}

OS:ShadingSurface,
  {5fddf43f-c015-40d0-8ed3-a5946c59c653}, !- Handle
  ShadingB123W2245,                       !- Name
  ,                                       !- Construction Name
  {d2ed8079-ff95-442d-b2be-527df7f4b5ba}, !- Shading Surface Group Name
  ,                                       !- Transmittance Schedule Name
  ,                                       !- Number of Vertices
  -100.330307006836, -162.317626953125, 14.0399997711182, !- X,Y,Z Vertex 1 {m}
  -100.330307006836, -162.317626953125, 9.35999984741211, !- X,Y,Z Vertex 2 {m}
  -100.310859680176, -123.612228393555, 9.35999984741211, !- X,Y,Z Vertex 3 {m}
  -100.310859680176, -123.612228393555, 14.0399997711182; !- X,Y,Z Vertex 4 {m}

OS:ShadingSurface,
  {eed311cb-94e8-47c4-a282-25ebd528d3df}, !- Handle
  ShadingB797W5391,                       !- Name
  ,                                       !- Construction Name
  {d2ed8079-ff95-442d-b2be-527df7f4b5ba}, !- Shading Surface Group Name
  ,                                       !- Transmittance Schedule Name
  ,                                       !- Number of Vertices
  -102.234741210938, -83.7436294555664, 27.8888893127441, !- X,Y,Z Vertex 1 {m}
  -102.234741210938, -83.7436294555664, 22.3111114501953, !- X,Y,Z Vertex 2 {m}
  -102.234741210938, -68.6093063354492, 22.3111114501953, !- X,Y,Z Vertex 3 {m}
  -102.234741210938, -68.6093063354492, 27.8888893127441; !- X,Y,Z Vertex 4 {m}

OS:ShadingSurface,
  {28c324a9-d115-46ab-b7de-a202a5ad0f79}, !- Handle
  ShadingB398W3329,                       !- Name
  ,                                       !- Construction Name
  {d2ed8079-ff95-442d-b2be-527df7f4b5ba}, !- Shading Surface Group Name
  ,                                       !- Transmittance Schedule Name
  ,                                       !- Number of Vertices
  -242.096618652344, -32.7829437255859, 22.5333336724175, !- X,Y,Z Vertex 1 {m}
  -242.096618652344, -32.7829437255859, 16.9000002543131, !- X,Y,Z Vertex 2 {m}
  -290.236145019531, -32.7829437255859, 16.9000002543131, !- X,Y,Z Vertex 3 {m}
  -290.236145019531, -32.7829437255859, 22.5333336724175; !- X,Y,Z Vertex 4 {m}

OS:ShadingSurface,
  {46e4fa4d-d2ea-410d-ae1a-bfd501bfcff5}, !- Handle
  ShadingB3923W9775,                      !- Name
  ,                                       !- Construction Name
  {d2ed8079-ff95-442d-b2be-527df7f4b5ba}, !- Shading Surface Group Name
  ,                                       !- Transmittance Schedule Name
  ,                                       !- Number of Vertices
  21.8820114135742, -82.9362716674805, 6.875, !- X,Y,Z Vertex 1 {m}
  21.8820114135742, -82.9362716674805, 0, !- X,Y,Z Vertex 2 {m}
  21.8820114135742, -100.091896057129, 0, !- X,Y,Z Vertex 3 {m}
  21.8820114135742, -100.091896057129, 6.875; !- X,Y,Z Vertex 4 {m}

OS:ShadingSurface,
  {2038c0cb-a030-4693-9aa8-592866a5e3a5}, !- Handle
  ShadingB398W3233,                       !- Name
  ,                                       !- Construction Name
  {d2ed8079-ff95-442d-b2be-527df7f4b5ba}, !- Shading Surface Group Name
  ,                                       !- Transmittance Schedule Name
  ,                                       !- Number of Vertices
  -271.079925537109, -120.260513305664, 46.7999992370605, !- X,Y,Z Vertex 1 {m}
  -271.079925537109, -120.260513305664, 45.0666673448351, !- X,Y,Z Vertex 2 {m}
  -271.079925537109, -129.845642089844, 45.0666673448351, !- X,Y,Z Vertex 3 {m}
  -271.079925537109, -129.845642089844, 46.7999992370605; !- X,Y,Z Vertex 4 {m}

OS:ShadingSurface,
  {7c60b165-65ca-4380-b3d5-c9ab4e15fa3e}, !- Handle
  ShadingB3923W9381,                      !- Name
  ,                                       !- Construction Name
  {d2ed8079-ff95-442d-b2be-527df7f4b5ba}, !- Shading Surface Group Name
  ,                                       !- Transmittance Schedule Name
  ,                                       !- Number of Vertices
  -28.9091491699219, -68.1041564941406, 27.5, !- X,Y,Z Vertex 1 {m}
  -28.9091491699219, -68.1041564941406, 20.625, !- X,Y,Z Vertex 2 {m}
  -15.4975776672363, -75.0550994873047, 20.625, !- X,Y,Z Vertex 3 {m}
  -15.4975776672363, -75.0550994873047, 27.5; !- X,Y,Z Vertex 4 {m}

OS:ShadingSurface,
  {12a639b6-674b-48bc-a691-e0b1b2b0b34c}, !- Handle
  ShadingB3545W11987,                     !- Name
  ,                                       !- Construction Name
  {d2ed8079-ff95-442d-b2be-527df7f4b5ba}, !- Shading Surface Group Name
  ,                                       !- Transmittance Schedule Name
  ,                                       !- Number of Vertices
  -202.980880737305, -13.8155212402344, 6.62222205268012, !- X,Y,Z Vertex 1 {m}
  -202.980880737305, -13.8155212402344, 3.31111102634006, !- X,Y,Z Vertex 2 {m}
  -206.644515991211, -13.8155212402344, 3.31111102634006, !- X,Y,Z Vertex 3 {m}
  -206.644515991211, -13.8155212402344, 6.62222205268012; !- X,Y,Z Vertex 4 {m}

OS:ShadingSurface,
  {4f67c4a0-1250-4b44-bd5a-885163a78224}, !- Handle
  ShadingB123W2268,                       !- Name
  ,                                       !- Construction Name
  {d2ed8079-ff95-442d-b2be-527df7f4b5ba}, !- Shading Surface Group Name
  ,                                       !- Transmittance Schedule Name
  ,                                       !- Number of Vertices
  -169.491775512695, -162.328491210938, 28.0799995422363, !- X,Y,Z Vertex 1 {m}
  -169.491775512695, -162.328491210938, 23.3999996185303, !- X,Y,Z Vertex 2 {m}
  -153.306228637695, -162.336608886719, 23.3999996185303, !- X,Y,Z Vertex 3 {m}
  -153.306228637695, -162.336608886719, 28.0799995422363; !- X,Y,Z Vertex 4 {m}

OS:ShadingSurface,
  {f5f5fd86-03de-4d83-938f-c10c935fdead}, !- Handle
  ShadingB3923W9230,                      !- Name
  ,                                       !- Construction Name
  {d2ed8079-ff95-442d-b2be-527df7f4b5ba}, !- Shading Surface Group Name
  ,                                       !- Transmittance Schedule Name
  ,                                       !- Number of Vertices
  58.0769271850586, -110.984840393066, 13.75, !- X,Y,Z Vertex 1 {m}
  58.0769271850586, -110.984840393066, 6.875, !- X,Y,Z Vertex 2 {m}
  58.0769271850586, -113.733436584473, 6.875, !- X,Y,Z Vertex 3 {m}
  58.0769271850586, -113.733436584473, 13.75; !- X,Y,Z Vertex 4 {m}

OS:ShadingSurface,
  {dc6daf9d-a550-4130-bc85-ca68171628bb}, !- Handle
  ShadingB3923W9745,                      !- Name
  ,                                       !- Construction Name
  {d2ed8079-ff95-442d-b2be-527df7f4b5ba}, !- Shading Surface Group Name
  ,                                       !- Transmittance Schedule Name
  ,                                       !- Number of Vertices
  -61.6537132263184, -109.734436035156, 49, !- X,Y,Z Vertex 1 {m}
  -61.6537132263184, -109.734436035156, 48.125, !- X,Y,Z Vertex 2 {m}
  -29.2093925476074, -128.465728759766, 48.125, !- X,Y,Z Vertex 3 {m}
  -29.2093925476074, -128.465728759766, 49; !- X,Y,Z Vertex 4 {m}

OS:ShadingSurface,
  {86d86b99-592e-4fe8-88f1-c1b6990ed639}, !- Handle
  ShadingB3923W9742,                      !- Name
  ,                                       !- Construction Name
  {d2ed8079-ff95-442d-b2be-527df7f4b5ba}, !- Shading Surface Group Name
  ,                                       !- Transmittance Schedule Name
  ,                                       !- Number of Vertices
  -52.4326553344726, -115.058090209961, 6.875, !- X,Y,Z Vertex 1 {m}
  -52.4326553344726, -115.058090209961, 0, !- X,Y,Z Vertex 2 {m}
  -29.2093925476074, -128.465728759766, 0, !- X,Y,Z Vertex 3 {m}
  -29.2093925476074, -128.465728759766, 6.875; !- X,Y,Z Vertex 4 {m}

OS:ShadingSurface,
  {b61507a2-a99a-4c78-bebf-aad2893bd919}, !- Handle
  ShadingB123W2564,                       !- Name
  ,                                       !- Construction Name
  {d2ed8079-ff95-442d-b2be-527df7f4b5ba}, !- Shading Surface Group Name
  ,                                       !- Transmittance Schedule Name
  ,                                       !- Number of Vertices
  -3.90298461914063, -186.495666503906, 46.7999992370605, !- X,Y,Z Vertex 1 {m}
  -3.90298461914063, -186.495666503906, 42.1199993133545, !- X,Y,Z Vertex 2 {m}
  -3.94572448730469, -271.572906494141, 42.1199993133545, !- X,Y,Z Vertex 3 {m}
  -3.94572448730469, -271.572906494141, 46.7999992370605; !- X,Y,Z Vertex 4 {m}

OS:ShadingSurface,
  {ad505e53-b507-42cc-97eb-0dbab36cdd93}, !- Handle
  ShadingB398W3195,                       !- Name
  ,                                       !- Construction Name
  {d2ed8079-ff95-442d-b2be-527df7f4b5ba}, !- Shading Surface Group Name
  ,                                       !- Transmittance Schedule Name
  ,                                       !- Number of Vertices
  -260.333953857422, -87.5866622924805, 16.9000002543131, !- X,Y,Z Vertex 1 {m}
  -260.333953857422, -87.5866622924805, 11.2666668362088, !- X,Y,Z Vertex 2 {m}
  -260.333953857422, -53.0442581176758, 11.2666668362088, !- X,Y,Z Vertex 3 {m}
  -260.333953857422, -53.0442581176758, 16.9000002543131; !- X,Y,Z Vertex 4 {m}

OS:ShadingSurface,
  {751a1384-6a65-48de-a750-ad29a0871755}, !- Handle
  ShadingB3923W9355,                      !- Name
  ,                                       !- Construction Name
  {d2ed8079-ff95-442d-b2be-527df7f4b5ba}, !- Shading Surface Group Name
  ,                                       !- Transmittance Schedule Name
  ,                                       !- Number of Vertices
  -23.5018539428711, -125.189826965332, 46.9999961853027, !- X,Y,Z Vertex 1 {m}
  -23.5018539428711, -125.189826965332, 41.25, !- X,Y,Z Vertex 2 {m}
  -13.0440902709961, -131.557647705078, 41.25, !- X,Y,Z Vertex 3 {m}
  -13.0440902709961, -131.557647705078, 46.9999961853027; !- X,Y,Z Vertex 4 {m}

OS:ShadingSurface,
  {3a310d99-f866-4d28-9a0e-2b21a2b950d1}, !- Handle
  ShadingB123W2561,                       !- Name
  ,                                       !- Construction Name
  {d2ed8079-ff95-442d-b2be-527df7f4b5ba}, !- Shading Surface Group Name
  ,                                       !- Transmittance Schedule Name
  ,                                       !- Number of Vertices
  -3.90298461914063, -186.495666503906, 14.0399997711182, !- X,Y,Z Vertex 1 {m}
  -3.90298461914063, -186.495666503906, 9.35999984741211, !- X,Y,Z Vertex 2 {m}
  -3.94572448730469, -271.572906494141, 9.35999984741211, !- X,Y,Z Vertex 3 {m}
  -3.94572448730469, -271.572906494141, 14.0399997711182; !- X,Y,Z Vertex 4 {m}

OS:ShadingSurface,
  {dfa7370f-58d5-4039-a612-299683095ac3}, !- Handle
  ShadingB3923W9504,                      !- Name
  ,                                       !- Construction Name
  {d2ed8079-ff95-442d-b2be-527df7f4b5ba}, !- Shading Surface Group Name
  ,                                       !- Transmittance Schedule Name
  ,                                       !- Number of Vertices
  50.8443756103516, -116.182250976563, 39, !- X,Y,Z Vertex 1 {m}
  50.8443756103516, -116.182250976563, 34.375, !- X,Y,Z Vertex 2 {m}
  50.8443756103516, -110.984840393066, 34.375, !- X,Y,Z Vertex 3 {m}
  50.8443756103516, -110.984840393066, 39; !- X,Y,Z Vertex 4 {m}

OS:ShadingSurface,
  {0739d756-53ff-4031-b7e2-5c5b5b8ccba5}, !- Handle
  ShadingB797W5457,                       !- Name
  ,                                       !- Construction Name
  {d2ed8079-ff95-442d-b2be-527df7f4b5ba}, !- Shading Surface Group Name
  ,                                       !- Transmittance Schedule Name
  ,                                       !- Number of Vertices
  -101.135803222656, -10.6448440551758, 39.0444450378418, !- X,Y,Z Vertex 1 {m}
  -101.135803222656, -10.6448440551758, 33.466667175293, !- X,Y,Z Vertex 2 {m}
  -101.135803222656, 32.7486953735352, 33.466667175293, !- X,Y,Z Vertex 3 {m}
  -101.135803222656, 32.7486953735352, 39.0444450378418; !- X,Y,Z Vertex 4 {m}

OS:ShadingSurface,
  {b55d091a-9c9c-4763-b188-5b25babccb2f}, !- Handle
  ShadingB398W3046,                       !- Name
  ,                                       !- Construction Name
  {d2ed8079-ff95-442d-b2be-527df7f4b5ba}, !- Shading Surface Group Name
  ,                                       !- Transmittance Schedule Name
  ,                                       !- Number of Vertices
  -222.118255615234, -109.951385498047, 22.5333336724175, !- X,Y,Z Vertex 1 {m}
  -222.118255615234, -109.951385498047, 16.9000002543131, !- X,Y,Z Vertex 2 {m}
  -231.554641723633, -109.951385498047, 16.9000002543131, !- X,Y,Z Vertex 3 {m}
  -231.554641723633, -109.951385498047, 22.5333336724175; !- X,Y,Z Vertex 4 {m}

OS:ShadingSurface,
  {4c5473e8-e0b9-4407-8bfb-667e0576dfaf}, !- Handle
  ShadingB838W5860,                       !- Name
  ,                                       !- Construction Name
  {d2ed8079-ff95-442d-b2be-527df7f4b5ba}, !- Shading Surface Group Name
  ,                                       !- Transmittance Schedule Name
  ,                                       !- Number of Vertices
  -137.627197265625, -10.7623348236084, 8.32222154405382, !- X,Y,Z Vertex 1 {m}
  -137.627197265625, -10.7623348236084, 4.16111077202691, !- X,Y,Z Vertex 2 {m}
  -138.89973449707, -10.7623348236084, 4.16111077202691, !- X,Y,Z Vertex 3 {m}
  -138.89973449707, -10.7623348236084, 8.32222154405382; !- X,Y,Z Vertex 4 {m}

OS:ShadingSurface,
  {36ef1619-dd0b-498a-88af-b645e2ca16ef}, !- Handle
  ShadingB123W2382,                       !- Name
  ,                                       !- Construction Name
  {d2ed8079-ff95-442d-b2be-527df7f4b5ba}, !- Shading Surface Group Name
  ,                                       !- Transmittance Schedule Name
  ,                                       !- Number of Vertices
  21.8876953125, -271.585876464844, 28.0799995422363, !- X,Y,Z Vertex 1 {m}
  21.8876953125, -271.585876464844, 23.3999996185303, !- X,Y,Z Vertex 2 {m}
  21.9305572509766, -186.272964477539, 23.3999996185303, !- X,Y,Z Vertex 3 {m}
  21.9305572509766, -186.272964477539, 28.0799995422363; !- X,Y,Z Vertex 4 {m}

OS:ShadingSurface,
  {b3a9942e-2bf3-437a-a1ef-500ebd2990ad}, !- Handle
  ShadingB398W3196,                       !- Name
  ,                                       !- Construction Name
  {d2ed8079-ff95-442d-b2be-527df7f4b5ba}, !- Shading Surface Group Name
  ,                                       !- Transmittance Schedule Name
  ,                                       !- Number of Vertices
  -260.333953857422, -129.845642089844, 46.7999992370605, !- X,Y,Z Vertex 1 {m}
  -260.333953857422, -129.845642089844, 45.0666673448351, !- X,Y,Z Vertex 2 {m}
  -260.333953857422, -49.4262390136719, 45.0666673448351, !- X,Y,Z Vertex 3 {m}
  -260.333953857422, -49.4262390136719, 46.7999992370605; !- X,Y,Z Vertex 4 {m}

OS:ShadingSurface,
  {7f5c20e5-04fd-4acc-8b46-ea4e03f76fc2}, !- Handle
  ShadingB3923W9216,                      !- Name
  ,                                       !- Construction Name
  {d2ed8079-ff95-442d-b2be-527df7f4b5ba}, !- Shading Surface Group Name
  ,                                       !- Transmittance Schedule Name
  ,                                       !- Number of Vertices
  5.08475494384766, -105.356994628906, 13.75, !- X,Y,Z Vertex 1 {m}
  5.08475494384766, -105.356994628906, 6.875, !- X,Y,Z Vertex 2 {m}
  5.08475494384766, -104.668449401855, 6.875, !- X,Y,Z Vertex 3 {m}
  5.08475494384766, -104.668449401855, 13.75; !- X,Y,Z Vertex 4 {m}

OS:ShadingSurface,
  {c8092723-0fbf-4d97-8d1d-1240057c99f7}, !- Handle
  ShadingB797W5647,                       !- Name
  ,                                       !- Construction Name
  {d2ed8079-ff95-442d-b2be-527df7f4b5ba}, !- Shading Surface Group Name
  ,                                       !- Transmittance Schedule Name
  ,                                       !- Number of Vertices
  -123.341979980469, -18.0433044433594, 50.2000007629395, !- X,Y,Z Vertex 1 {m}
  -123.341979980469, -18.0433044433594, 44.6222229003906, !- X,Y,Z Vertex 2 {m}
  -100.537895202637, -18.0433044433594, 44.6222229003906, !- X,Y,Z Vertex 3 {m}
  -100.537895202637, -18.0433044433594, 46.0999984741211, !- X,Y,Z Vertex 4 {m}
  -113.646934509277, -18.0433044433594, 46.0999984741211, !- X,Y,Z Vertex 5 {m}
  -113.646934509277, -18.0433044433594, 50.2000007629395; !- X,Y,Z Vertex 6 {m}

OS:ShadingSurface,
  {ef842fb8-ef96-4b36-b045-3fe6c6e73e10}, !- Handle
  ShadingB3923W9725,                      !- Name
  ,                                       !- Construction Name
  {d2ed8079-ff95-442d-b2be-527df7f4b5ba}, !- Shading Surface Group Name
  ,                                       !- Transmittance Schedule Name
  ,                                       !- Number of Vertices
  65.0188751220703, -96.2729187011719, 34.375, !- X,Y,Z Vertex 1 {m}
  65.0188751220703, -96.2729187011719, 27.5, !- X,Y,Z Vertex 2 {m}
  65.0188751220703, -90.5947036743164, 27.5, !- X,Y,Z Vertex 3 {m}
  65.0188751220703, -90.5947036743164, 34.375; !- X,Y,Z Vertex 4 {m}

OS:Surface,
  {6387693f-2164-491f-90c6-83f23dec81fc}, !- Handle
  Roof3549,                               !- Name
  RoofCeiling,                            !- Surface Type
  {0fdfd093-19b5-4408-8084-ac45dd767026}, !- Construction Name
  {eb6b778f-64be-4ee1-b263-fedf64bf1e56}, !- Space Name
  Outdoors,                               !- Outside Boundary Condition
  ,                                       !- Outside Boundary Condition Object
  SunExposed,                             !- Sun Exposure
  WindExposed,                            !- Wind Exposure
  ,                                       !- View Factor to Ground
  ,                                       !- Number of Vertices
  -144.362335205078, -84.6252899169922, 28, !- X,Y,Z Vertex 1 {m}
  -144.362335205078, -46.0463600158691, 28, !- X,Y,Z Vertex 2 {m}
  -149.903747558594, -46.0463600158691, 28, !- X,Y,Z Vertex 3 {m}
  -149.903747558594, -84.6252899169922, 28; !- X,Y,Z Vertex 4 {m}

OS:Construction,
  {0fdfd093-19b5-4408-8084-ac45dd767026}, !- Handle
  MaterialsDB W 12 2,                     !- Name
  {efb7cd20-0773-4062-83a8-6e04d25bfdb4}, !- Surface Rendering Name
  {1d395367-b11a-4ac0-8345-753c9934ee9c}, !- Layer 1
  {17ada06d-4055-4661-92cb-555a0c19cb10}, !- Layer 2
  {05e28326-74fd-4450-a8f2-282d76b5c104}, !- Layer 3
  {6cbf0c4d-a4fe-41d6-a8b7-728523f7d791}; !- Layer 4

OS:Material,
  {1d395367-b11a-4ac0-8345-753c9934ee9c}, !- Handle
  MaterialsDB W 12 2_M0,                  !- Name
  MediumSmooth,                           !- Roughness
  0.2,                                    !- Thickness {m}
  2.3,                                    !- Conductivity {W/m-K}
  2300,                                   !- Density {kg/m3}
  1000,                                   !- Specific Heat {J/kg-K}
  0.9,                                    !- Thermal Absorptance
  0.7,                                    !- Solar Absorptance
  0.7;                                    !- Visible Absorptance

OS:Material,
  {17ada06d-4055-4661-92cb-555a0c19cb10}, !- Handle
  MaterialsDB W 12 2_M1,                  !- Name
  MediumSmooth,                           !- Roughness
  0.16,                                   !- Thickness {m}
  0.036,                                  !- Conductivity {W/m-K}
  60,                                     !- Density {kg/m3}
  601.2,                                  !- Specific Heat {J/kg-K}
  0.9,                                    !- Thermal Absorptance
  0.7,                                    !- Solar Absorptance
  0.7;                                    !- Visible Absorptance

OS:Material,
  {05e28326-74fd-4450-a8f2-282d76b5c104}, !- Handle
  MaterialsDB W 12 2_M2,                  !- Name
  MediumSmooth,                           !- Roughness
  0.05,                                   !- Thickness {m}
  0.025,                                  !- Conductivity {W/m-K}
  1.23,                                   !- Density {kg/m3}
  1000.8,                                 !- Specific Heat {J/kg-K}
  0.9,                                    !- Thermal Absorptance
  0.7,                                    !- Solar Absorptance
  0.7;                                    !- Visible Absorptance

OS:Material,
  {6cbf0c4d-a4fe-41d6-a8b7-728523f7d791}, !- Handle