
Version,
  8.3;                                    !- Version Identifier

LifeCycleCost:Parameters,
  {f8bd7307-fcc7-44f0-b630-446698a449e9}, !- Name
  EndOfYear,                              !- Discounting Convention
  ConstantDollar,                         !- Inflation Approach
  0.03,                                   !- Real Discount Rate
  ,                                       !- Nominal Discount Rate
  ,                                       !- Inflation
  ,                                       !- Base Date Month
  2011,                                   !- Base Date Year
  ,                                       !- Service Date Month
  2011,                                   !- Service Date Year
  25,                                     !- Length of Study Period in Years
  ,                                       !- Tax rate
  None;                                   !- Depreciation Method

LifeCycleCost:UsePriceEscalation,
  U.S. Avg  Commercial-Electricity,       !- Name
  Electricity,                            !- Resource
  2011,                                   !- Escalation Start Year
  January,                                !- Escalation Start Month
  0.9838,                                 !- Year Escalation 1
  0.9730,                                 !- Year Escalation 2
  0.9632,                                 !- Year Escalation 3
  0.9611,                                 !- Year Escalation 4
  0.9571,                                 !- Year Escalation 5
  0.9553,                                 !- Year Escalation 6
  0.9539,                                 !- Year Escalation 7
  0.9521,                                 !- Year Escalation 8
  0.9546,                                 !- Year Escalation 9
  0.9550,                                 !- Year Escalation 10
  0.9553,                                 !- Year Escalation 11
  0.9564,                                 !- Year Escalation 12
  0.9575,                                 !- Year Escalation 13
  0.9596,                                 !- Year Escalation 14
  0.9618,                                 !- Year Escalation 15
  0.9614,                                 !- Year Escalation 16
  0.9618,                                 !- Year Escalation 17
  0.9618,                                 !- Year Escalation 18
  0.9593,                                 !- Year Escalation 19
  0.9589,                                 !- Year Escalation 20
  0.9607,                                 !- Year Escalation 21
  0.9625,                                 !- Year Escalation 22
  0.9650,                                 !- Year Escalation 23
  0.9708,                                 !- Year Escalation 24
  0.9751,                                 !- Year Escalation 25
  0.9762,                                 !- Year Escalation 26
  0.9766,                                 !- Year Escalation 27
  0.9766,                                 !- Year Escalation 28
  0.9769,                                 !- Year Escalation 29
  0.9773;                                 !- Year Escalation 30

LifeCycleCost:UsePriceEscalation,
  U.S. Avg  Commercial-Distillate Oil,    !- Name
  FuelOil#1,                              !- Resource
  2011,                                   !- Escalation Start Year
  January,                                !- Escalation Start Month
  0.9714,                                 !- Year Escalation 1
  0.9730,                                 !- Year Escalation 2
  0.9942,                                 !- Year Escalation 3
  1.0164,                                 !- Year Escalation 4
  1.0541,                                 !- Year Escalation 5
  1.0928,                                 !- Year Escalation 6
  1.1267,                                 !- Year Escalation 7
  1.1580,                                 !- Year Escalation 8
  1.1792,                                 !- Year Escalation 9
  1.1967,                                 !- Year Escalation 10
  1.2200,                                 !- Year Escalation 11
  1.2333,                                 !- Year Escalation 12
  1.2566,                                 !- Year Escalation 13
  1.2709,                                 !- Year Escalation 14
  1.2826,                                 !- Year Escalation 15
  1.2985,                                 !- Year Escalation 16
  1.3102,                                 !- Year Escalation 17
  1.3250,                                 !- Year Escalation 18
  1.3261,                                 !- Year Escalation 19
  1.3282,                                 !- Year Escalation 20
  1.3324,                                 !- Year Escalation 21
  1.3356,                                 !- Year Escalation 22
  1.3431,                                 !- Year Escalation 23
  1.3510,                                 !- Year Escalation 24
  1.3568,                                 !- Year Escalation 25
  1.3606,                                 !- Year Escalation 26
  1.3637,                                 !- Year Escalation 27
  1.3674,                                 !- Year Escalation 28
  1.3706,                                 !- Year Escalation 29
  1.3743;                                 !- Year Escalation 30

LifeCycleCost:UsePriceEscalation,
  U.S. Avg  Commercial-Residual Oil,      !- Name
  FuelOil#2,                              !- Resource
  2011,                                   !- Escalation Start Year
  January,                                !- Escalation Start Month
  0.8469,                                 !- Year Escalation 1
  0.8257,                                 !- Year Escalation 2
  0.8681,                                 !- Year Escalation 3
  0.8988,                                 !- Year Escalation 4
  0.9289,                                 !- Year Escalation 5
  0.9604,                                 !- Year Escalation 6
  0.9897,                                 !- Year Escalation 7
  1.0075,                                 !- Year Escalation 8
  1.0314,                                 !- Year Escalation 9
  1.0554,                                 !- Year Escalation 10
  1.0861,                                 !- Year Escalation 11
  1.1278,                                 !- Year Escalation 12
  1.1497,                                 !- Year Escalation 13
  1.1620,                                 !- Year Escalation 14
  1.1743,                                 !- Year Escalation 15
  1.1852,                                 !- Year Escalation 16
  1.1948,                                 !- Year Escalation 17
  1.2037,                                 !- Year Escalation 18
  1.2071,                                 !- Year Escalation 19
  1.2119,                                 !- Year Escalation 20
  1.2139,                                 !- Year Escalation 21
  1.2194,                                 !- Year Escalation 22
  1.2276,                                 !- Year Escalation 23
  1.2365,                                 !- Year Escalation 24
  1.2420,                                 !- Year Escalation 25
  1.2461,                                 !- Year Escalation 26
  1.2509,                                 !- Year Escalation 27
  1.2550,                                 !- Year Escalation 28
  1.2591,                                 !- Year Escalation 29
  1.2638;                                 !- Year Escalation 30

LifeCycleCost:UsePriceEscalation,
  U.S. Avg  Commercial-Natural gas,       !- Name
  NaturalGas,                             !- Resource
  2011,                                   !- Escalation Start Year
  January,                                !- Escalation Start Month
  0.9823,                                 !- Year Escalation 1
  0.9557,                                 !- Year Escalation 2
  0.9279,                                 !- Year Escalation 3
  0.9257,                                 !- Year Escalation 4
  0.9346,                                 !- Year Escalation 5
  0.9412,                                 !- Year Escalation 6
  0.9512,                                 !- Year Escalation 7
  0.9645,                                 !- Year Escalation 8
  0.9856,                                 !- Year Escalation 9
  1.0067,                                 !- Year Escalation 10
  1.0222,                                 !- Year Escalation 11
  1.0410,                                 !- Year Escalation 12
  1.0610,                                 !- Year Escalation 13
  1.0787,                                 !- Year Escalation 14
  1.0942,                                 !- Year Escalation 15
  1.1098,                                 !- Year Escalation 16
  1.1220,                                 !- Year Escalation 17
  1.1308,                                 !- Year Escalation 18
  1.1386,                                 !- Year Escalation 19
  1.1486,                                 !- Year Escalation 20
  1.1619,                                 !- Year Escalation 21
  1.1763,                                 !- Year Escalation 22
  1.1918,                                 !- Year Escalation 23
  1.2118,                                 !- Year Escalation 24
  1.2284,                                 !- Year Escalation 25
  1.2439,                                 !- Year Escalation 26
  1.2605,                                 !- Year Escalation 27
  1.2772,                                 !- Year Escalation 28
  1.2938,                                 !- Year Escalation 29
  1.3115;                                 !- Year Escalation 30

LifeCycleCost:UsePriceEscalation,
  U.S. Avg  Commercial-Coal,              !- Name
  Coal,                                   !- Resource
  2011,                                   !- Escalation Start Year
  January,                                !- Escalation Start Month
  0.9970,                                 !- Year Escalation 1
  1.0089,                                 !- Year Escalation 2
  1.0089,                                 !- Year Escalation 3
  0.9941,                                 !- Year Escalation 4
  0.9941,                                 !- Year Escalation 5
  1.0000,                                 !- Year Escalation 6
  1.0030,                                 !- Year Escalation 7
  1.0059,                                 !- Year Escalation 8
  1.0089,                                 !- Year Escalation 9
  1.0119,                                 !- Year Escalation 10
  1.0148,                                 !- Year Escalation 11
  1.0178,                                 !- Year Escalation 12
  1.0208,                                 !- Year Escalation 13
  1.0267,                                 !- Year Escalation 14
  1.0297,                                 !- Year Escalation 15
  1.0356,                                 !- Year Escalation 16
  1.0415,                                 !- Year Escalation 17
  1.0534,                                 !- Year Escalation 18
  1.0564,                                 !- Year Escalation 19
  1.0593,                                 !- Year Escalation 20
  1.0653,                                 !- Year Escalation 21
  1.0712,                                 !- Year Escalation 22
  1.0742,                                 !- Year Escalation 23
  1.0801,                                 !- Year Escalation 24
  1.0831,                                 !- Year Escalation 25
  1.0831,                                 !- Year Escalation 26
  1.0861,                                 !- Year Escalation 27
  1.0890,                                 !- Year Escalation 28
  1.0920,                                 !- Year Escalation 29
  1.0950;                                 !- Year Escalation 30

Building,
  RevitModel_nowindows,                   !- Name
  0,                                      !- North Axis {deg}
  ,                                       !- Terrain
  0.04,                                   !- Loads Convergence Tolerance Value
  0.004,                                  !- Temperature Convergence Tolerance Value {deltaC}
  FullExterior,                           !- Solar Distribution
  100,                                    !- Maximum Number of Warmup Days
  6;                                      !- Minimum Number of Warmup Days

Shading:Building:Detailed,
  ShadingB1173W5977,                      !- Name
  ,                                       !- Transmittance Schedule Name
  ,                                       !- Number of Vertices
  -245.255529746812, -259.766139447787, 6.00006834886265, !- X,Y,Z Vertex 1 {m}
  -245.258048823226, -259.745684902017, 0.000139138729291283, !- X,Y,Z Vertex 2 {m}
  -236.140132029798, -258.622768799413, 2.44100398652289e-006, !- X,Y,Z Vertex 3 {m}
  -236.137612953384, -258.643223345182, 5.99993165113735; !- X,Y,Z Vertex 4 {m}

Shading:Building:Detailed,
  ShadingB1173W5978,                      !- Name
  ,                                       !- Transmittance Schedule Name
  ,                                       !- Number of Vertices
  -236.140132029798, -258.622768799413, 41.999997558996, !- X,Y,Z Vertex 1 {m}
  -245.258048823226, -259.745684902017, 41.9998608612707, !- X,Y,Z Vertex 2 {m}
  -245.255529746812, -259.766139447787, 35.9999316511374, !- X,Y,Z Vertex 3 {m}
  -236.137612953384, -258.643223345182, 36.0000683488627; !- X,Y,Z Vertex 4 {m}

Shading:Building:Detailed,
  ShadingB1173W5979,                      !- Name
  ,                                       !- Transmittance Schedule Name
  ,                                       !- Number of Vertices
  -245.25309753418, -259.785888671875, 18, !- X,Y,Z Vertex 1 {m}
  -245.25309753418, -259.785888671875, 12, !- X,Y,Z Vertex 2 {m}
  -236.140045166016, -258.623474121094, 12, !- X,Y,Z Vertex 3 {m}
  -236.140045166016, -258.623474121094, 18; !- X,Y,Z Vertex 4 {m}

Shading:Building:Detailed,
  ShadingB1173W5980,                      !- Name
  ,                                       !- Transmittance Schedule Name
  ,                                       !- Number of Vertices
  -245.25309753418, -259.785888671875, 36, !- X,Y,Z Vertex 1 {m}
  -245.25309753418, -259.785888671875, 30, !- X,Y,Z Vertex 2 {m}
  -236.140045166016, -258.623474121094, 30, !- X,Y,Z Vertex 3 {m}
  -236.140045166016, -258.623474121094, 36; !- X,Y,Z Vertex 4 {m}

Shading:Building:Detailed,
  ShadingB1173W5981,                      !- Name
  ,                                       !- Transmittance Schedule Name
  ,                                       !- Number of Vertices
  -245.25309753418, -259.785888671875, 30, !- X,Y,Z Vertex 1 {m}
  -245.25309753418, -259.785888671875, 24, !- X,Y,Z Vertex 2 {m}
  -236.140045166016, -258.623474121094, 24, !- X,Y,Z Vertex 3 {m}
  -236.140045166016, -258.623474121094, 30; !- X,Y,Z Vertex 4 {m}

Shading:Building:Detailed,
  ShadingB1173W5982,                      !- Name
  ,                                       !- Transmittance Schedule Name
  ,                                       !- Number of Vertices
  -245.25309753418, -259.785888671875, 12, !- X,Y,Z Vertex 1 {m}
  -245.25309753418, -259.785888671875, 6, !- X,Y,Z Vertex 2 {m}
  -236.140045166016, -258.623474121094, 6, !- X,Y,Z Vertex 3 {m}
  -236.140045166016, -258.623474121094, 12; !- X,Y,Z Vertex 4 {m}

Shading:Building:Detailed,
  ShadingB1173W5983,                      !- Name
  ,                                       !- Transmittance Schedule Name
  ,                                       !- Number of Vertices
  -245.25309753418, -259.785888671875, 24, !- X,Y,Z Vertex 1 {m}
  -245.25309753418, -259.785888671875, 18, !- X,Y,Z Vertex 2 {m}
  -236.140045166016, -258.623474121094, 18, !- X,Y,Z Vertex 3 {m}
  -236.140045166016, -258.623474121094, 24; !- X,Y,Z Vertex 4 {m}

Shading:Building:Detailed,
  ShadingB1173W5993,                      !- Name
  ,                                       !- Transmittance Schedule Name
  ,                                       !- Number of Vertices
  -236.140045166016, -258.623474121094, 36, !- X,Y,Z Vertex 1 {m}
  -236.140045166016, -258.623474121094, 30, !- X,Y,Z Vertex 2 {m}
  -231.270080566406, -257.191192626953, 30, !- X,Y,Z Vertex 3 {m}
  -231.270080566406, -257.191192626953, 36; !- X,Y,Z Vertex 4 {m}

Shading:Building:Detailed,
  ShadingB1173W5994,                      !- Name
  ,                                       !- Transmittance Schedule Name
  ,                                       !- Number of Vertices
  -236.139004704415, -258.626993037597, 6.00002747355749, !- X,Y,Z Vertex 1 {m}
  -236.126268185585, -258.670068866887, 0.000363783405040223, !- X,Y,Z Vertex 2 {m}
  -231.258384509176, -257.230749539741, 0.000308836290056546, !- X,Y,Z Vertex 3 {m}
  -231.271121028007, -257.18767371045, 5.99997252644251; !- X,Y,Z Vertex 4 {m}

Shading:Building:Detailed,
  ShadingB1173W5995,                      !- Name
  ,                                       !- Transmittance Schedule Name
  ,                                       !- Number of Vertices
  -236.140045166016, -258.623474121094, 12, !- X,Y,Z Vertex 1 {m}
  -236.140045166016, -258.623474121094, 6, !- X,Y,Z Vertex 2 {m}
  -231.270080566406, -257.191192626953, 6, !- X,Y,Z Vertex 3 {m}
  -231.270080566406, -257.191192626953, 12; !- X,Y,Z Vertex 4 {m}

Shading:Building:Detailed,
  ShadingB1173W5996,                      !- Name
  ,                                       !- Transmittance Schedule Name
  ,                                       !- Number of Vertices
  -236.140045166016, -258.623474121094, 18, !- X,Y,Z Vertex 1 {m}
  -236.140045166016, -258.623474121094, 12, !- X,Y,Z Vertex 2 {m}
  -231.270080566406, -257.191192626953, 12, !- X,Y,Z Vertex 3 {m}
  -231.270080566406, -257.191192626953, 18; !- X,Y,Z Vertex 4 {m}

Shading:Building:Detailed,
  ShadingB1173W5997,                      !- Name
  ,                                       !- Transmittance Schedule Name
  ,                                       !- Number of Vertices
  -231.258384509176, -257.230749539741, 41.9996911637099, !- X,Y,Z Vertex 1 {m}
  -236.126268185585, -258.670068866887, 41.999636216595, !- X,Y,Z Vertex 2 {m}
  -236.139004704415, -258.626993037597, 35.9999725264425, !- X,Y,Z Vertex 3 {m}
  -231.271121028007, -257.18767371045, 36.0000274735575; !- X,Y,Z Vertex 4 {m}

Shading:Building:Detailed,
  ShadingB1173W5998,                      !- Name
  ,                                       !- Transmittance Schedule Name
  ,                                       !- Number of Vertices
  -236.140045166016, -258.623474121094, 30, !- X,Y,Z Vertex 1 {m}
  -236.140045166016, -258.623474121094, 24, !- X,Y,Z Vertex 2 {m}
  -231.270080566406, -257.191192626953, 24, !- X,Y,Z Vertex 3 {m}
  -231.270080566406, -257.191192626953, 30; !- X,Y,Z Vertex 4 {m}

Shading:Building:Detailed,
  ShadingB1173W5999,                      !- Name
  ,                                       !- Transmittance Schedule Name
  ,                                       !- Number of Vertices
  -236.140045166016, -258.623474121094, 24, !- X,Y,Z Vertex 1 {m}
  -236.140045166016, -258.623474121094, 18, !- X,Y,Z Vertex 2 {m}
  -231.270080566406, -257.191192626953, 18, !- X,Y,Z Vertex 3 {m}
  -231.270080566406, -257.191192626953, 24; !- X,Y,Z Vertex 4 {m}

Shading:Building:Detailed,
  ShadingB1173W6008,                      !- Name
  ,                                       !- Transmittance Schedule Name
  ,                                       !- Number of Vertices
  -231.270080566406, -257.191192626953, 24, !- X,Y,Z Vertex 1 {m}
  -231.270080566406, -257.191192626953, 18, !- X,Y,Z Vertex 2 {m}
  -228.597274780273, -255.979934692383, 18, !- X,Y,Z Vertex 3 {m}
  -228.597274780273, -255.979934692383, 24; !- X,Y,Z Vertex 4 {m}

Shading:Building:Detailed,
  ShadingB1173W6009,                      !- Name
  ,                                       !- Transmittance Schedule Name
  ,                                       !- Number of Vertices
  -231.269656716294, -257.192126174359, 6.00000229536517, !- X,Y,Z Vertex 1 {m}
  -231.264103501522, -257.204357359615, 3.23688637463523e-005, !- X,Y,Z Vertex 2 {m}
  -228.592145415614, -255.991232330234, 2.77781334146927e-005, !- X,Y,Z Vertex 3 {m}
  -228.597698630385, -255.979001144978, 5.99999770463483; !- X,Y,Z Vertex 4 {m}

Shading:Building:Detailed,
  ShadingB1173W6010,                      !- Name
  ,                                       !- Transmittance Schedule Name
  ,                                       !- Number of Vertices
  -231.270080566406, -257.191192626953, 30, !- X,Y,Z Vertex 1 {m}
  -231.270080566406, -257.191192626953, 24, !- X,Y,Z Vertex 2 {m}
  -228.597274780273, -255.979934692383, 24, !- X,Y,Z Vertex 3 {m}
  -228.597274780273, -255.979934692383, 30; !- X,Y,Z Vertex 4 {m}

Shading:Building:Detailed,
  ShadingB1173W6011,                      !- Name
  ,                                       !- Transmittance Schedule Name
  ,                                       !- Number of Vertices
  -231.270080566406, -257.191192626953, 12, !- X,Y,Z Vertex 1 {m}
  -231.270080566406, -257.191192626953, 6, !- X,Y,Z Vertex 2 {m}
  -228.597274780273, -255.979934692383, 6, !- X,Y,Z Vertex 3 {m}
  -228.597274780273, -255.979934692383, 12; !- X,Y,Z Vertex 4 {m}

Shading:Building:Detailed,
  ShadingB1173W6012,                      !- Name
  ,                                       !- Transmittance Schedule Name
  ,                                       !- Number of Vertices
  -228.592145415614, -255.991232330234, 41.9999722218666, !- X,Y,Z Vertex 1 {m}
  -231.264103501523, -257.204357359615, 41.9999676311363, !- X,Y,Z Vertex 2 {m}
  -231.269656716294, -257.192126174358, 35.9999977046348, !- X,Y,Z Vertex 3 {m}
  -228.597698630385, -255.979001144978, 36.0000022953652; !- X,Y,Z Vertex 4 {m}

Shading:Building:Detailed,
  ShadingB1173W6013,                      !- Name
  ,                                       !- Transmittance Schedule Name
  ,                                       !- Number of Vertices
  -231.270080566406, -257.191192626953, 18, !- X,Y,Z Vertex 1 {m}
  -231.270080566406, -257.191192626953, 12, !- X,Y,Z Vertex 2 {m}
  -228.597274780273, -255.979934692383, 12, !- X,Y,Z Vertex 3 {m}
  -228.597274780273, -255.979934692383, 18; !- X,Y,Z Vertex 4 {m}

Shading:Building:Detailed,
  ShadingB1173W6014,                      !- Name
  ,                                       !- Transmittance Schedule Name
  ,                                       !- Number of Vertices
  -231.270080566406, -257.191192626953, 36, !- X,Y,Z Vertex 1 {m}
  -231.270080566406, -257.191192626953, 30, !- X,Y,Z Vertex 2 {m}
  -228.597274780273, -255.979934692383, 30, !- X,Y,Z Vertex 3 {m}
  -228.597274780273, -255.979934692383, 36; !- X,Y,Z Vertex 4 {m}

Shading:Building:Detailed,
  ShadingB1173W6023,                      !- Name
  ,                                       !- Transmittance Schedule Name
  ,                                       !- Number of Vertices
  -253.742874145508, -268.436492919922, 36, !- X,Y,Z Vertex 1 {m}
  -253.742874145508, -268.436492919922, 30, !- X,Y,Z Vertex 2 {m}
  -250.22021484375, -263.133605957031, 30, !- X,Y,Z Vertex 3 {m}
  -250.22021484375, -263.133605957031, 36; !- X,Y,Z Vertex 4 {m}

Shading:Building:Detailed,
  ShadingB1173W6024,                      !- Name
  ,                                       !- Transmittance Schedule Name
  ,                                       !- Number of Vertices
  -253.742874145508, -268.436492919922, 24, !- X,Y,Z Vertex 1 {m}
  -253.742874145508, -268.436492919922, 18, !- X,Y,Z Vertex 2 {m}
  -250.22021484375, -263.133605957031, 18, !- X,Y,Z Vertex 3 {m}
  -250.22021484375, -263.133605957031, 24; !- X,Y,Z Vertex 4 {m}

Shading:Building:Detailed,
  ShadingB1173W6025,                      !- Name
  ,                                       !- Transmittance Schedule Name
  ,                                       !- Number of Vertices
  -253.740932553075, -268.437780654806, 6.00000406272647, !- X,Y,Z Vertex 1 {m}
  -253.732213238224, -268.443563622284, 2.23076426702322e-005, !- X,Y,Z Vertex 2 {m}
  -250.213437121332, -263.138101189625, 1.41821897308384e-005, !- X,Y,Z Vertex 3 {m}
  -250.222156436183, -263.132318222147, 5.99999593727353; !- X,Y,Z Vertex 4 {m}

Shading:Building:Detailed,
  ShadingB1173W6026,                      !- Name
  ,                                       !- Transmittance Schedule Name
  ,                                       !- Number of Vertices
  -250.213437121332, -263.138101189625, 41.9999858178103, !- X,Y,Z Vertex 1 {m}
  -253.732213238224, -268.443563622284, 41.9999776923573, !- X,Y,Z Vertex 2 {m}
  -253.740932553075, -268.437780654806, 35.9999959372735, !- X,Y,Z Vertex 3 {m}
  -250.222156436183, -263.132318222147, 36.0000040627265; !- X,Y,Z Vertex 4 {m}

Shading:Building:Detailed,
  ShadingB1173W6027,                      !- Name
  ,                                       !- Transmittance Schedule Name
  ,                                       !- Number of Vertices
  -253.742874145508, -268.436492919922, 18, !- X,Y,Z Vertex 1 {m}
  -253.742874145508, -268.436492919922, 12, !- X,Y,Z Vertex 2 {m}
  -250.22021484375, -263.133605957031, 12, !- X,Y,Z Vertex 3 {m}
  -250.22021484375, -263.133605957031, 18; !- X,Y,Z Vertex 4 {m}

Shading:Building:Detailed,
  ShadingB1173W6028,                      !- Name
  ,                                       !- Transmittance Schedule Name
  ,                                       !- Number of Vertices
  -253.742874145508, -268.436492919922, 30, !- X,Y,Z Vertex 1 {m}
  -253.742874145508, -268.436492919922, 24, !- X,Y,Z Vertex 2 {m}
  -250.22021484375, -263.133605957031, 24, !- X,Y,Z Vertex 3 {m}
  -250.22021484375, -263.133605957031, 30; !- X,Y,Z Vertex 4 {m}

Shading:Building:Detailed,
  ShadingB1173W6029,                      !- Name
  ,                                       !- Transmittance Schedule Name
  ,                                       !- Number of Vertices
  -253.742874145508, -268.436492919922, 12, !- X,Y,Z Vertex 1 {m}
  -253.742874145508, -268.436492919922, 6, !- X,Y,Z Vertex 2 {m}
  -250.22021484375, -263.133605957031, 6, !- X,Y,Z Vertex 3 {m}
  -250.22021484375, -263.133605957031, 12; !- X,Y,Z Vertex 4 {m}

Shading:Building:Detailed,
  ShadingB1173W6040,                      !- Name
  ,                                       !- Transmittance Schedule Name
  ,                                       !- Number of Vertices
  -249.247528076172, -262.069427490234, 30, !- X,Y,Z Vertex 1 {m}
  -249.247528076172, -262.069427490234, 24, !- X,Y,Z Vertex 2 {m}
  -247.96614074707, -260.995391845703, 24, !- X,Y,Z Vertex 3 {m}
  -247.96614074707, -260.995391845703, 30; !- X,Y,Z Vertex 4 {m}

Shading:Building:Detailed,
  ShadingB1173W6041,                      !- Name
  ,                                       !- Transmittance Schedule Name
  ,                                       !- Number of Vertices
  -249.247528076172, -262.069427490234, 42, !- X,Y,Z Vertex 1 {m}
  -249.247528076172, -262.069427490234, 36, !- X,Y,Z Vertex 2 {m}
  -247.96614074707, -260.995391845703, 36, !- X,Y,Z Vertex 3 {m}
  -247.96614074707, -260.995391845703, 42; !- X,Y,Z Vertex 4 {m}

Shading:Building:Detailed,
  ShadingB1173W6042,                      !- Name
  ,                                       !- Transmittance Schedule Name
  ,                                       !- Number of Vertices
  -249.247528076172, -262.069427490234, 36, !- X,Y,Z Vertex 1 {m}
  -249.247528076172, -262.069427490234, 30, !- X,Y,Z Vertex 2 {m}
  -247.96614074707, -260.995391845703, 30, !- X,Y,Z Vertex 3 {m}
  -247.96614074707, -260.995391845703, 36; !- X,Y,Z Vertex 4 {m}

Shading:Building:Detailed,
  ShadingB1173W6043,                      !- Name
  ,                                       !- Transmittance Schedule Name
  ,                                       !- Number of Vertices
  -249.247528076172, -262.069427490234, 6, !- X,Y,Z Vertex 1 {m}
  -249.247528076172, -262.069427490234, 0, !- X,Y,Z Vertex 2 {m}
  -247.96614074707, -260.995391845703, 0, !- X,Y,Z Vertex 3 {m}
  -247.96614074707, -260.995391845703, 6; !- X,Y,Z Vertex 4 {m}

Shading:Building:Detailed,
  ShadingB1173W6044,                      !- Name
  ,                                       !- Transmittance Schedule Name
  ,                                       !- Number of Vertices
  -249.247528076172, -262.069427490234, 12, !- X,Y,Z Vertex 1 {m}
  -249.247528076172, -262.069427490234, 6, !- X,Y,Z Vertex 2 {m}
  -247.96614074707, -260.995391845703, 6, !- X,Y,Z Vertex 3 {m}
  -247.96614074707, -260.995391845703, 12; !- X,Y,Z Vertex 4 {m}

Shading:Building:Detailed,
  ShadingB1173W6045,                      !- Name
  ,                                       !- Transmittance Schedule Name
  ,                                       !- Number of Vertices
  -249.247528076172, -262.069427490234, 18, !- X,Y,Z Vertex 1 {m}
  -249.247528076172, -262.069427490234, 12, !- X,Y,Z Vertex 2 {m}
  -247.96614074707, -260.995391845703, 12, !- X,Y,Z Vertex 3 {m}
  -247.96614074707, -260.995391845703, 18; !- X,Y,Z Vertex 4 {m}

Shading:Building:Detailed,
  ShadingB1173W6046,                      !- Name
  ,                                       !- Transmittance Schedule Name
  ,                                       !- Number of Vertices
  -249.247528076172, -262.069427490234, 24, !- X,Y,Z Vertex 1 {m}
  -249.247528076172, -262.069427490234, 18, !- X,Y,Z Vertex 2 {m}
  -247.96614074707, -260.995391845703, 18, !- X,Y,Z Vertex 3 {m}
  -247.96614074707, -260.995391845703, 24; !- X,Y,Z Vertex 4 {m}

Shading:Building:Detailed,
  ShadingB1173W6055,                      !- Name
  ,                                       !- Transmittance Schedule Name
  ,                                       !- Number of Vertices
  -250.22021484375, -263.133605957031, 18, !- X,Y,Z Vertex 1 {m}
  -250.22021484375, -263.133605957031, 12, !- X,Y,Z Vertex 2 {m}