! ====================================================================================================
! ===
! ===     NON-HVAC PART (GEOMETRIES ETC.)
! ===
! ====================================================================================================

  Version,8.2;

! =========== BASIC SETTINGS ===========

  HeatBalanceAlgorithm,ConductionTransferFunction,200;

  GlobalGeometryRules,
    LowerLeftCorner,         !- Starting Vertex Position
    CounterClockWise,        !- Vertex Entry Direction
    Relative;                !- Coordinate System

  SurfaceConvectionAlgorithm:Inside,TARP;

  SurfaceConvectionAlgorithm:Outside,DOE-2;

! =========== SCHEDULES (GENERAL) ===========

  ScheduleTypeLimits,
    Fraction,                !- Name
    0,                       !- Lower Limit Value
    1,                       !- Upper Limit Value
    Continuous,              !- Numeric Type
    Dimensionless;           !- Unit Type

  ScheduleTypeLimits,
    Availability,            !- Name
    0,                       !- Lower Limit Value
    1,                       !- Upper Limit Value
    Discrete,                !- Numeric Type
    Dimensionless;           !- Unit Type

  ScheduleTypeLimits,
    AnyNumber,               !- Name
    ,                        !- Lower Limit Value
    ,                        !- Upper Limit Value
    ,                        !- Numeric Type
    Dimensionless;           !- Unit Type

  ScheduleTypeLimits,
    Temperature,             !- Name
    ,                        !- Lower Limit Value
    ,                        !- Upper Limit Value
    Continuous,              !- Numeric Type
    Temperature;             !- Unit Type

  Schedule:Constant,Schedule_Availability_AlwaysOn,Availability,1;

  Schedule:Constant,Schedule_Availability_AlwaysOff,Availability,0;

  Schedule:Constant,Schedule_Fraction_Always1,Fraction,1;

  Schedule:Constant,Schedule_Fraction_Always0,Fraction,0;

        ! Ground Temperatures from Meteonorm Zurich Weather File (LOCATION,Zuerich,SZ,-,MN6,3244,47.380,8.550,1,471)

  Site:GroundTemperature:BuildingSurface,6.0,4.3,3.6,4.3,6.0,8.5,10.9,12.6,13.3,12.6,10.9,8.5;

! =========== TIMESTEP & RUNPERIOD ===========

  Timestep,1;

  RunPeriod,
    RunPeriod_WholeYear,     !- Name
    1,                       !- Begin Month
    1,                       !- Begin Day of Month
    12,                      !- End Month
    31,                      !- End Day of Month
    UseWeatherFile,          !- Day of Week for Start Day
    Yes,                     !- Use Weather File Holidays and Special Days
    Yes,                     !- Use Weather File Daylight Saving Period
    No,                      !- Apply Weekend Holiday Rule
    Yes,                     !- Use Weather File Rain Indicators
    Yes;                     !- Use Weather File Snow Indicators

! =========== BUILDING, ZONES & GEOMETRIES ===========
! from file: C:\Users\admin\Desktop\EP_HPZ21\HPZ21_16_geo006.imf
! =========== BUILDING AND ZONES ===========

  Building,
    HPZ_21Zones_16,          !- Name
    27,                      !- North Axis {deg}
    Suburbs,                 !- Terrain
    0.1,                     !- Loads Convergence Tolerance Value
    0.40,                    !- Temperature Convergence Tolerance Value {deltaC}
    FullExterior,            !- Solar Distribution
    200,                     !- Maximum Number of Warmup Days
    6;                       !- Minimum Number of Warmup Days

!                                            H         V           A

  Zone,
    ZONE_D_CORE,             !- Name
    0,                       !- Direction of Relative North {deg}
    0,                       !- X Origin {m}
    0,                       !- Y Origin {m}
    0,                       !- Z Origin {m}
    1,                       !- Type
    1,                       !- Multiplier
    3.02,                    !- Ceiling Height {m}
    autocalculate,           !- Volume {m3}
    111.83,                  !- Floor Area {m2}
    ,                        !- Zone Inside Convection Algorithm
    ,                        !- Zone Outside Convection Algorithm
    Yes;                     !- Part of Total Floor Area

  Zone,
    ZONE_E_CORE_M,           !- Name
    0,                       !- Direction of Relative North {deg}
    0,                       !- X Origin {m}
    0,                       !- Y Origin {m}
    0,                       !- Z Origin {m}
    1,                       !- Type
    1,                       !- Multiplier
    3.79,                    !- Ceiling Height {m}
    autocalculate,           !- Volume {m3}
    152.52,                  !- Floor Area {m2}
    ,                        !- Zone Inside Convection Algorithm
    ,                        !- Zone Outside Convection Algorithm
    Yes;                     !- Part of Total Floor Area

  Zone,
    ZONE_E_SE,               !- Name
    0,                       !- Direction of Relative North {deg}
    0,                       !- X Origin {m}
    0,                       !- Y Origin {m}
    0,                       !- Z Origin {m}
    1,                       !- Type
    1,                       !- Multiplier
    3.79,                    !- Ceiling Height {m}
    autocalculate,           !- Volume {m3}
    48.97,                   !- Floor Area {m2}
    ,                        !- Zone Inside Convection Algorithm
    ,                        !- Zone Outside Convection Algorithm
    Yes;                     !- Part of Total Floor Area

  Zone,
    ZONE_E_SW,               !- Name
    0,                       !- Direction of Relative North {deg}
    0,                       !- X Origin {m}
    0,                       !- Y Origin {m}
    0,                       !- Z Origin {m}
    1,                       !- Type
    1,                       !- Multiplier
    3.79,                    !- Ceiling Height {m}
    autocalculate,           !- Volume {m3}
    46.65,                   !- Floor Area {m2}
    ,                        !- Zone Inside Convection Algorithm
    ,                        !- Zone Outside Convection Algorithm
    Yes;                     !- Part of Total Floor Area

  Zone,
    ZONE_E_W,                !- Name
    0,                       !- Direction of Relative North {deg}
    0,                       !- X Origin {m}
    0,                       !- Y Origin {m}
    0,                       !- Z Origin {m}
    1,                       !- Type
    1,                       !- Multiplier
    3.79,                    !- Ceiling Height {m}
    autocalculate,           !- Volume {m3}
    74.77,                   !- Floor Area {m2}
    ,                        !- Zone Inside Convection Algorithm
    ,                        !- Zone Outside Convection Algorithm
    Yes;                     !- Part of Total Floor Area

  Zone,
    ZONE_E_NW,               !- Name
    0,                       !- Direction of Relative North {deg}
    0,                       !- X Origin {m}
    0,                       !- Y Origin {m}
    0,                       !- Z Origin {m}
    1,                       !- Type
    1,                       !- Multiplier
    3.79,                    !- Ceiling Height {m}
    autocalculate,           !- Volume {m3}
    39.45,                   !- Floor Area {m2}
    ,                        !- Zone Inside Convection Algorithm
    ,                        !- Zone Outside Convection Algorithm
    Yes;                     !- Part of Total Floor Area

  Zone,
    ZONE_E_NE,               !- Name
    0,                       !- Direction of Relative North {deg}
    0,                       !- X Origin {m}
    0,                       !- Y Origin {m}
    0,                       !- Z Origin {m}
    1,                       !- Type
    1,                       !- Multiplier
    3.79,                    !- Ceiling Height {m}
    autocalculate,           !- Volume {m3}
    74.39,                   !- Floor Area {m2}
    ,                        !- Zone Inside Convection Algorithm
    ,                        !- Zone Outside Convection Algorithm
    Yes;                     !- Part of Total Floor Area

  Zone,
    ZONE_F_CORE,             !- Name
    0,                       !- Direction of Relative North {deg}
    0,                       !- X Origin {m}
    0,                       !- Y Origin {m}
    0,                       !- Z Origin {m}
    1,                       !- Type
    1,                       !- Multiplier
    3.11,                    !- Ceiling Height {m}
    autocalculate,           !- Volume {m3}
    104.04,                  !- Floor Area {m2}
    ,                        !- Zone Inside Convection Algorithm
    ,                        !- Zone Outside Convection Algorithm
    Yes;                     !- Part of Total Floor Area

  Zone,
    ZONE_F_SE,               !- Name
    0,                       !- Direction of Relative North {deg}
    0,                       !- X Origin {m}
    0,                       !- Y Origin {m}
    0,                       !- Z Origin {m}
    1,                       !- Type
    1,                       !- Multiplier
    3.11,                    !- Ceiling Height {m}
    autocalculate,           !- Volume {m3}
    21.22,                   !- Floor Area {m2}
    ,                        !- Zone Inside Convection Algorithm
    ,                        !- Zone Outside Convection Algorithm
    Yes;                     !- Part of Total Floor Area

  Zone,
    ZONE_F_SI,               !- Name
    0,                       !- Direction of Relative North {deg}
    0,                       !- X Origin {m}
    0,                       !- Y Origin {m}
    0,                       !- Z Origin {m}
    1,                       !- Type
    1,                       !- Multiplier
    3.11,                    !- Ceiling Height {m}
    autocalculate,           !- Volume {m3}
    286.87,                  !- Floor Area {m2}
    ,                        !- Zone Inside Convection Algorithm
    ,                        !- Zone Outside Convection Algorithm
    Yes;                     !- Part of Total Floor Area

  Zone,
    ZONE_F_NI,               !- Name
    0,                       !- Direction of Relative North {deg}
    0,                       !- X Origin {m}
    0,                       !- Y Origin {m}
    0,                       !- Z Origin {m}
    1,                       !- Type
    1,                       !- Multiplier
    3.11,                    !- Ceiling Height {m}
    autocalculate,           !- Volume {m3}
    287.30,                  !- Floor Area {m2}
    ,                        !- Zone Inside Convection Algorithm
    ,                        !- Zone Outside Convection Algorithm
    Yes;                     !- Part of Total Floor Area

  Zone,
    ZONE_F_NE,               !- Name
    0,                       !- Direction of Relative North {deg}
    0,                       !- X Origin {m}
    0,                       !- Y Origin {m}
    0,                       !- Z Origin {m}
    1,                       !- Type
    1,                       !- Multiplier
    3.11,                    !- Ceiling Height {m}
    autocalculate,           !- Volume {m3}
    20.11,                   !- Floor Area {m2}
    ,                        !- Zone Inside Convection Algorithm
    ,                        !- Zone Outside Convection Algorithm
    Yes;                     !- Part of Total Floor Area

  Zone,
    ZONE_F_E,                !- Name
    0,                       !- Direction of Relative North {deg}
    0,                       !- X Origin {m}
    0,                       !- Y Origin {m}
    0,                       !- Z Origin {m}
    1,                       !- Type
    1,                       !- Multiplier
    3.11,                    !- Ceiling Height {m}
    autocalculate,           !- Volume {m3}
    120.18,                  !- Floor Area {m2}
    ,                        !- Zone Inside Convection Algorithm
    ,                        !- Zone Outside Convection Algorithm
    Yes;                     !- Part of Total Floor Area

  Zone,
    ZONE_G_CORE,             !- Name
    0,                       !- Direction of Relative North {deg}
    0,                       !- X Origin {m}
    0,                       !- Y Origin {m}
    0,                       !- Z Origin {m}
    1,                       !- Type
    1,                       !- Multiplier
    3.16,                    !- Ceiling Height {m}
    979.06,                  !- Volume {m3}
    309.8,                   !- Floor Area {m2}
    ,                        !- Zone Inside Convection Algorithm
    ,                        !- Zone Outside Convection Algorithm
    Yes;                     !- Part of Total Floor Area

  Zone,
    ZONE_G_SE,               !- Name
    0,                       !- Direction of Relative North {deg}
    0,                       !- X Origin {m}
    0,                       !- Y Origin {m}
    0,                       !- Z Origin {m}
    1,                       !- Type
    1,                       !- Multiplier
    3.16,                    !- Ceiling Height {m}
    119.49,                  !- Volume {m3}
    37.81,                   !- Floor Area {m2}
    ,                        !- Zone Inside Convection Algorithm
    ,                        !- Zone Outside Convection Algorithm
    Yes;                     !- Part of Total Floor Area

  Zone,
    ZONE_G_S,                !- Name
    0,                       !- Direction of Relative North {deg}
    0,                       !- X Origin {m}
    0,                       !- Y Origin {m}
    0,                       !- Z Origin {m}
    1,                       !- Type
    1,                       !- Multiplier
    3.16,                    !- Ceiling Height {m}
    233.23,                  !- Volume {m3}
    73.81,                   !- Floor Area {m2}
    ,                        !- Zone Inside Convection Algorithm
    ,                        !- Zone Outside Convection Algorithm
    Yes;                     !- Part of Total Floor Area

  Zone,
    ZONE_G_SW,               !- Name
    0,                       !- Direction of Relative North {deg}
    0,                       !- X Origin {m}
    0,                       !- Y Origin {m}
    0,                       !- Z Origin {m}
    1,                       !- Type
    1,                       !- Multiplier
    3.16,                    !- Ceiling Height {m}
    124.97,                  !- Volume {m3}
    39.55,                   !- Floor Area {m2}
    ,                        !- Zone Inside Convection Algorithm
    ,                        !- Zone Outside Convection Algorithm
    Yes;                     !- Part of Total Floor Area

  Zone,
    ZONE_G_W,                !- Name
    0,                       !- Direction of Relative North {deg}
    0,                       !- X Origin {m}
    0,                       !- Y Origin {m}
    0,                       !- Z Origin {m}
    1,                       !- Type
    1,                       !- Multiplier
    3.16,                    !- Ceiling Height {m}
    296.04,                  !- Volume {m3}
    93.68,                   !- Floor Area {m2}
    ,                        !- Zone Inside Convection Algorithm
    ,                        !- Zone Outside Convection Algorithm
    Yes;                     !- Part of Total Floor Area

  Zone,
    ZONE_G_NW,               !- Name
    0,                       !- Direction of Relative North {deg}
    0,                       !- X Origin {m}
    0,                       !- Y Origin {m}
    0,                       !- Z Origin {m}
    1,                       !- Type
    1,                       !- Multiplier
    3.16,                    !- Ceiling Height {m}
    122.69,                  !- Volume {m3}
    38.82,                   !- Floor Area {m2}
    ,                        !- Zone Inside Convection Algorithm
    ,                        !- Zone Outside Convection Algorithm
    Yes;                     !- Part of Total Floor Area

  Zone,
    ZONE_G_N,                !- Name
    0,                       !- Direction of Relative North {deg}
    0,                       !- X Origin {m}
    0,                       !- Y Origin {m}
    0,                       !- Z Origin {m}
    1,                       !- Type
    1,                       !- Multiplier
    3.16,                    !- Ceiling Height {m}
    236.76,                  !- Volume {m3}
    74.92,                   !- Floor Area {m2}
    ,                        !- Zone Inside Convection Algorithm
    ,                        !- Zone Outside Convection Algorithm
    Yes;                     !- Part of Total Floor Area

  Zone,
    ZONE_G_NE,               !- Name
    0,                       !- Direction of Relative North {deg}
    0,                       !- X Origin {m}
    0,                       !- Y Origin {m}
    0,                       !- Z Origin {m}
    1,                       !- Type
    1,                       !- Multiplier
    3.16,                    !- Ceiling Height {m}
    125.49,                  !- Volume {m3}
    39.71,                   !- Floor Area {m2}
    ,                        !- Zone Inside Convection Algorithm
    ,                        !- Zone Outside Convection Algorithm
    Yes;                     !- Part of Total Floor Area

  Zone,
    ZONE_G_E,                !- Name
    0,                       !- Direction of Relative North {deg}
    0,                       !- X Origin {m}
    0,                       !- Y Origin {m}
    0,                       !- Z Origin {m}
    1,                       !- Type
    1,                       !- Multiplier
    3.16,                    !- Ceiling Height {m}
    300.70,                  !- Volume {m3}
    95.16,                   !- Floor Area {m2}
    ,                        !- Zone Inside Convection Algorithm
    ,                        !- Zone Outside Convection Algorithm
    Yes;                     !- Part of Total Floor Area

!                                            H      V       A

  ZoneList,
    ZoneList_AllZones,       !- Name
    Zone_D_CORE,             !- Zone 1 Name
    Zone_E_CORE_M,           !- Zone 2 Name
    Zone_E_NE,               !- Zone 3 Name
    Zone_E_NW,               !- Zone 4 Name
    Zone_E_SE,               !- Zone 5 Name
    Zone_E_SW,               !- Zone 6 Name
    Zone_E_W,                !- Zone 7 Name
    Zone_F_CORE,             !- Zone 8 Name
    Zone_F_E,                !- Zone 9 Name
    Zone_F_NE,               !- Zone 10 Name
    Zone_F_NI,               !- Zone 11 Name
    Zone_F_SE,               !- Zone 12 Name
    Zone_F_SI,               !- Zone 13 Name
    Zone_G_CORE,             !- Zone 14 Name
    Zone_G_E,                !- Zone 15 Name
    Zone_G_N,                !- Zone 16 Name
    Zone_G_NE,               !- Zone 17 Name
    Zone_G_NW,               !- Zone 18 Name
    Zone_G_S,                !- Zone 19 Name
    Zone_G_SE,               !- Zone 20 Name
    Zone_G_SW,               !- Zone 21 Name
    Zone_G_W;                !- Zone 22 Name

! =========== MATERIALS ===========

  Material,
    _DPVSE.Betonarmiert.1C{0.160},  !- Name
    MediumSmooth,            !- Roughness
    0.1600,                  !- Thickness {m}
    2.3000,                  !- Conductivity {W/m-K}
    2300.0000,               !- Density {kg/m3}
    1000.0000,               !- Specific Heat {J/kg-K}
    0.2780,                  !- Thermal Absorptance
    0.7000,                  !- Solar Absorptance
    0.7000;                  !- Visible Absorptance

  Material,
    _DPVSE.PolystyrolEPS.1I{0.040},  !- Name
    MediumSmooth,            !- Roughness
    0.0400,                  !- Thickness {m}
    0.04,                    !- Conductivity {W/m-K}
    15.0000,                 !- Density {kg/m3}
    1450.0000,               !- Specific Heat {J/kg-K}
    0.4000,                  !- Thermal Absorptance
    0.7000,                  !- Solar Absorptance
    0.7000;                  !- Visible Absorptance

  Material,
    _DPVSE.Betonarmiert.1C{0.200},  !- Name
    MediumSmooth,            !- Roughness
    0.2000,                  !- Thickness {m}
    2.3000,                  !- Conductivity {W/m-K}
    2300.0000,               !- Density {kg/m3}
    1000.0000,               !- Specific Heat {J/kg-K}
    0.2780,                  !- Thermal Absorptance
    0.7000,                  !- Solar Absorptance
    0.7000;                  !- Visible Absorptance

  Material,
    HPZ_CurtainWallFrame,    !- Name
    Smooth,                  !- Roughness
    0.0040,                  !- Thickness {m}
    0.4700,                  !- Conductivity {W/m-K}
    1600.0000,               !- Density {kg/m3}
    900.0000,                !- Specific Heat {J/kg-K}
    0.9000,                  !- Thermal Absorptance
    0.7000,                  !- Solar Absorptance
    0.7000;                  !- Visible Absorptance

  Material,
    AirFilling,              !- Name
    VeryRough,               !- Roughness
    0.0200,                  !- Thickness {m}
    0.0240,                  !- Conductivity {W/m-K}
    1600.0000,               !- Density {kg/m3}
    1000.0000,               !- Specific Heat {J/kg-K}
    0.2800,                  !- Thermal Absorptance
    0.7000,                  !- Solar Absorptance
    0.7000;                  !- Visible Absorptance

  Material,
    _DPVSE.Kalksandstein.1M{0.150},  !- Name
    MediumSmooth,            !- Roughness
    0.1500,                  !- Thickness {m}
    1.0000,                  !- Conductivity {W/m-K}
    1800.0000,               !- Density {kg/m3}
    900.0000,                !- Specific Heat {J/kg-K}
    0.2500,                  !- Thermal Absorptance
    0.7000,                  !- Solar Absorptance
    0.7000;                  !- Visible Absorptance

  Material,
    _DPVSE.Stahl.4 ME{0.002},!- Name
    MediumSmooth,            !- Roughness
    0.0020,                  !- Thickness {m}
    50.0000,                 !- Conductivity {W/m-K}
    7800.0000,               !- Density {kg/m3}
    470.0000,                !- Specific Heat {J/kg-K}
    0.1060,                  !- Thermal Absorptance
    0.7000,                  !- Solar Absorptance
    0.7000;                  !- Visible Absorptance

  Material,
    _DPVSE.Glaswolle.6I{0.040},  !- Name
    MediumSmooth,            !- Roughness
    0.0400,                  !- Thickness {m}
    0.0370,                  !- Conductivity {W/m-K}
    20.0000,                 !- Density {kg/m3}
    828.0000,                !- Specific Heat {J/kg-K}
    0.2300,                  !- Thermal Absorptance
    0.7000,                  !- Solar Absorptance
    0.7000;                  !- Visible Absorptance

  Material,
    _DPVSE.Aerogel{0.010},   !- Name
    VeryRough,               !- Roughness
    0.0100,                  !- Thickness {m}
    0.0131,                  !- Conductivity {W/m-K}
    150.0000,                !- Density {kg/m3}
    846.0000,                !- Specific Heat {J/kg-K}
    0.4000,                  !- Thermal Absorptance
    0.7000,                  !- Solar Absorptance
    0.7000;                  !- Visible Absorptance

  Material,
    _DPVSE.ZementEstrich.2C{0.100},  !- Name
    MediumSmooth,            !- Roughness
    0.1000,                  !- Thickness {m}
    1.4000,                  !- Conductivity {W/m-K}
    2000.0000,               !- Density {kg/m3}
    1000.0000,               !- Specific Heat {J/kg-K}
    0.2780,                  !- Thermal Absorptance
    0.7000,                  !- Solar Absorptance
    0.7000;                  !- Visible Absorptance

  Material,
    _DPVSE.Betonarmiert.1C{0.380},  !- Name
    MediumSmooth,            !- Roughness
    0.3800,                  !- Thickness {m}
    2.3000,                  !- Conductivity {W/m-K}
    2300.0000,               !- Density {kg/m3}
    1000.0000,               !- Specific Heat {J/kg-K}
    0.2780,                  !- Thermal Absorptance
    0.7000,                  !- Solar Absorptance
    0.7000;                  !- Visible Absorptance

  Material,
    _DPVSE.PolystyrolEPS.1I{0.120},  !- Name
    MediumSmooth,            !- Roughness
    0.1200,                  !- Thickness {m}
    0.0380,                  !- Conductivity {W/m-K}
    15.0000,                 !- Density {kg/m3}
    1450.0000,               !- Specific Heat {J/kg-K}
    0.4000,                  !- Thermal Absorptance
    0.7000,                  !- Solar Absorptance
    0.7000;                  !- Visible Absorptance

  Material,
    _DPVSE.Aussenputz.1SM{0.030},  !- Name
    MediumSmooth,            !- Roughness
    0.0300,                  !- Thickness {m}
    0.8700,                  !- Conductivity {W/m-K}
    1800.0000,               !- Density {kg/m3}
    1000.0000,               !- Specific Heat {J/kg-K}
    0.2780,                  !- Thermal Absorptance
    0.7000,                  !- Solar Absorptance
    0.7000;                  !- Visible Absorptance

  Material,
    _DPVSE.Betonarmiert.1C{0.280},  !- Name
    MediumSmooth,            !- Roughness
    0.2800,                  !- Thickness {m}
    2.3000,                  !- Conductivity {W/m-K}
    2300.0000,               !- Density {kg/m3}
    1000.0000,               !- Specific Heat {J/kg-K}
    0.2780,                  !- Thermal Absorptance
    0.7000,                  !- Solar Absorptance
    0.7000;                  !- Visible Absorptance

  Material,
    _DPVSE.Rundkies.1NS{0.080},  !- Name
    MediumSmooth,            !- Roughness
    0.0800,                  !- Thickness {m}
    2.0000,                  !- Conductivity {W/m-K}
    1630.0000,               !- Density {kg/m3}
    1000.0000,               !- Specific Heat {J/kg-K}
    0.2780,                  !- Thermal Absorptance
    0.7000,                  !- Solar Absorptance
    0.7000;                  !- Visible Absorptance

  Material,
    _DPVSE.Bitumendichtungsbahn.1BF{0.005},  !- Name
    MediumSmooth,            !- Roughness
    0.0050,                  !- Thickness {m}
    0.2300,                  !- Conductivity {W/m-K}
    1100.0000,               !- Density {kg/m3}
    1000.0000,               !- Specific Heat {J/kg-K}
    0.2780,                  !- Thermal Absorptance
    0.7000,                  !- Solar Absorptance
    0.7000;                  !- Visible Absorptance

  Material,
    _DPVSE.PolystyrolXPS.2I{0.120},  !- Name
    MediumSmooth,            !- Roughness
    0.1200,                  !- Thickness {m}
    0.0370,                  !- Conductivity {W/m-K}
    30.0000,                 !- Density {kg/m3}
    1400.0000,               !- Specific Heat {J/kg-K}
    0.3890,                  !- Thermal Absorptance
    0.7000,                  !- Solar Absorptance
    0.7000;                  !- Visible Absorptance

  Material,
    _DPVSE.Betonarmiert.1C{0.320},  !- Name
    MediumSmooth,            !- Roughness
    0.3200,                  !- Thickness {m}
    2.3000,                  !- Conductivity {W/m-K}
    2300.0000,               !- Density {kg/m3}
    1000.0000,               !- Specific Heat {J/kg-K}
    0.2780,                  !- Thermal Absorptance
    0.7000,                  !- Solar Absorptance
    0.7000;                  !- Visible Absorptance

  Material,
    _DPVSE.PolystyrolEPS.1I{0.010},  !- Name
    MediumSmooth,            !- Roughness
    0.01,                    !- Thickness {m}
    0.04,                    !- Conductivity {W/m-K}
    15.0000,                 !- Density {kg/m3}
    1450.0000,               !- Specific Heat {J/kg-K}
    0.4000,                  !- Thermal Absorptance
    0.7000,                  !- Solar Absorptance
    0.7000;                  !- Visible Absorptance

  Material,
    _DPVSE.PolystyrolEPS.1I{0.100},  !- Name
    MediumSmooth,            !- Roughness
    0.1200,                  !- Thickness {m}
    0.0380,                  !- Conductivity {W/m-K}
    15.0000,                 !- Density {kg/m3}
    1450.0000,               !- Specific Heat {J/kg-K}
    0.4000,                  !- Thermal Absorptance
    0.7000,                  !- Solar Absorptance
    0.7000;                  !- Visible Absorptance

! =========== WINDOWMATERIAL:SIMPLEGLAZINGSYSTEM ===========

  WindowMaterial:SimpleGlazingSystem,
    3ScheibenIso,            !- Name
    1.15,                    !- U-Factor {W/m2-K}
    0.60;                    !- Solar Heat Gain Coefficient

  WindowMaterial:SimpleGlazingSystem,
    HPZ_2Scheiben_Mglas,     !- Name
    1.00,                    !- U-Factor {W/m2-K}
    0.25;                    !- Solar Heat Gain Coefficient

  WindowMaterial:SimpleGlazingSystem,
    2ScheibenIso,            !- Name
    1.15,                    !- U-Factor {W/m2-K}
    0.60;                    !- Solar Heat Gain Coefficient

  WindowMaterial:SimpleGlazingSystem,
    WT_2Pane_U16-g08,        !- Name
    1.6,                     !- U-Factor {W/m2-K}
    0.80;                    !- Solar Heat Gain Coefficient

  WindowMaterial:SimpleGlazingSystem,
    WT_2PaneIso_U12-g08,     !- Name
    1.2,                     !- U-Factor {W/m2-K}
    0.80;                    !- Solar Heat Gain Coefficient

  WindowMaterial:SimpleGlazingSystem,
    WT_3PaneIso_U08-g08,     !- Name
    0.8,                     !- U-Factor {W/m2-K}
    0.80;                    !- Solar Heat Gain Coefficient

  WindowMaterial:SimpleGlazingSystem,
    WT_3PaneIso_U065-g015,   !- Name
    0.65,                    !- U-Factor {W/m2-K}
    0.15;                    !- Solar Heat Gain Coefficient

!- =========== ALL OBJECTS IN CLASS: WINDOWMATERIAL:SHADE ===========

  WindowMaterial:Shade,
    HPZshade_medium,         !- Name
    0.4,                     !- Solar Transmittance {dimensionless}
    0.5,                     !- Solar Reflectance {dimensionless}
    0.4,                     !- Visible Transmittance {dimensionless}
    0.5,                     !- Visible Reflectance {dimensionless}