
OS:Version,
  {b13b3545-b5c1-4c5b-ac15-1382a8b291fb}, !- Handle
  1.8.0;                                  !- Version Identifier

OS:SimulationControl,
  {f04953d9-aa27-472d-b7a0-8586c0422bad}, !- Handle
  No,                                     !- Do Zone Sizing Calculation
  No,                                     !- Do System Sizing Calculation
  No,                                     !- Do Plant Sizing Calculation
  No,                                     !- Run Simulation for Sizing Periods
  Yes,                                    !- Run Simulation for Weather File Run Periods
  0.04,                                   !- Loads Convergence Tolerance Value
  0.004,                                  !- Temperature Convergence Tolerance Value {deltaC}
  FullExterior,                           !- Solar Distribution
  100,                                    !- Maximum Number of Warmup Days
  6;                                      !- Minimum Number of Warmup Days

OS:ShadingSurfaceGroup,
  {8d8c2a7a-2668-4040-8904-66edaeda1685}, !- Handle
  {98ad0917-9d10-4329-bb21-97cd13f08e7d}, !- Name
  Building,                               !- Shading Surface Type
  ,                                       !- Space Name
  ,                                       !- Direction of Relative North {deg}
  ,                                       !- X Origin {m}
  ,                                       !- Y Origin {m}
  ,                                       !- Z Origin {m}
  ;                                       !- Shaded Object Name

OS:Schedule:Compact,
  {d760ee90-e8dc-4ca3-8194-79c778a19512}, !- Handle
  HVACTemplate_Always_20,                 !- Name
  {4da1edc2-eeee-4697-ab20-a10a22898a6b}, !- Schedule Type Limits Name
  Through: 12/31,                         !- Field 1
  For: AllDays,                           !- Field 2
  Until: 24:00,                           !- Field 3
  20;                                     !- Field 4

OS:ScheduleTypeLimits,
  {4da1edc2-eeee-4697-ab20-a10a22898a6b}, !- Handle
  HVACTemplate_Any_Number,                !- Name
  ,                                       !- Lower Limit Value {BasedOnField A4}
  ,                                       !- Upper Limit Value {BasedOnField A4}
  ,                                       !- Numeric Type
  dimensionless;                          !- Unit Type

OS:ShadingSurface,
  {17b5a4aa-bbbb-4742-8c35-2972df4771cf}, !- Handle
  ShadingB1173W6106,                      !- Name
  ,                                       !- Construction Name
  {8d8c2a7a-2668-4040-8904-66edaeda1685}, !- Shading Surface Group Name
  ,                                       !- Transmittance Schedule Name
  ,                                       !- Number of Vertices
  -246.088745117188, -260.025512695313, 12, !- X,Y,Z Vertex 1 {m}
  -246.088745117188, -260.025512695313, 6, !- X,Y,Z Vertex 2 {m}
  -245.25309753418, -259.785888671875, 6, !- X,Y,Z Vertex 3 {m}
  -245.25309753418, -259.785888671875, 12; !- X,Y,Z Vertex 4 {m}

OS:ShadingSurface,
  {559cd02e-81e8-4c35-a615-ba989430335c}, !- Handle
  ShadingB4226W4494,                      !- Name
  ,                                       !- Construction Name
  {8d8c2a7a-2668-4040-8904-66edaeda1685}, !- Shading Surface Group Name
  ,                                       !- Transmittance Schedule Name
  ,                                       !- Number of Vertices
  -225.999618530273, 63.4014167785645, -33.3816102345785, !- X,Y,Z Vertex 1 {m}
  -225.999618530273, 63.4014167785645, -39.3841400146484, !- X,Y,Z Vertex 2 {m}
  -225.950744628906, 91.7273864746094, -39.3841400146484, !- X,Y,Z Vertex 3 {m}
  -225.950744628906, 91.7273864746094, -33.3816102345785; !- X,Y,Z Vertex 4 {m}

OS:ShadingSurface,
  {0497e148-4fd3-449a-9829-27500ab650e6}, !- Handle
  ShadingB1173W6374,                      !- Name
  ,                                       !- Construction Name
  {8d8c2a7a-2668-4040-8904-66edaeda1685}, !- Shading Surface Group Name
  ,                                       !- Transmittance Schedule Name
  ,                                       !- Number of Vertices
  -264.700500488281, -243.354461669922, 30, !- X,Y,Z Vertex 1 {m}
  -264.700500488281, -243.354461669922, 24, !- X,Y,Z Vertex 2 {m}
  -265.332550048828, -246.29248046875, 24, !- X,Y,Z Vertex 3 {m}
  -265.332550048828, -246.29248046875, 30; !- X,Y,Z Vertex 4 {m}

OS:ShadingSurface,
  {4f07b61f-614c-4a81-8f02-ba606eb8e040}, !- Handle
  ShadingB904W4700,                       !- Name
  ,                                       !- Construction Name
  {8d8c2a7a-2668-4040-8904-66edaeda1685}, !- Shading Surface Group Name
  ,                                       !- Transmittance Schedule Name
  ,                                       !- Number of Vertices
  -203.734008789063, 54.2777938842773, 32.6462173461914, !- X,Y,Z Vertex 1 {m}
  -203.734008789063, 54.2777938842773, 26.6436875661214, !- X,Y,Z Vertex 2 {m}
  -206.122909545898, 54.2777938842773, 26.6436875661214, !- X,Y,Z Vertex 3 {m}
  -206.122909545898, 54.2777938842773, 31.5383148193359; !- X,Y,Z Vertex 4 {m}

OS:ShadingSurface,
  {edcf886c-1578-4680-9e67-eb93c3d5763b}, !- Handle
  ShadingB4226W4570,                      !- Name
  ,                                       !- Construction Name
  {8d8c2a7a-2668-4040-8904-66edaeda1685}, !- Shading Surface Group Name
  ,                                       !- Transmittance Schedule Name
  ,                                       !- Number of Vertices
  -235.864640282251, 60.9845924400819, -21.3765506744385, !- X,Y,Z Vertex 1 {m}
  -235.864634862653, 60.9845924354063, -27.3790804545085, !- X,Y,Z Vertex 2 {m}
  -228.369827270504, 60.9716606163515, -27.3790804545085, !- X,Y,Z Vertex 3 {m}
  -228.369827270512, 60.9716606116759, -21.3765506744385; !- X,Y,Z Vertex 4 {m}

OS:ShadingSurface,
  {68aede33-b97e-4635-990c-277387863782}, !- Handle
  ShadingB797W5403,                       !- Name
  ,                                       !- Construction Name
  {8d8c2a7a-2668-4040-8904-66edaeda1685}, !- Shading Surface Group Name
  ,                                       !- Transmittance Schedule Name
  ,                                       !- Number of Vertices
  -102.234741210938, -68.6093063354492, 22.3111114501953, !- X,Y,Z Vertex 1 {m}
  -102.234741210938, -68.6093063354492, 16.7333335876465, !- X,Y,Z Vertex 2 {m}
  -101.057861328125, -68.6093063354492, 16.7333335876465, !- X,Y,Z Vertex 3 {m}
  -101.057861328125, -68.6093063354492, 22.3111114501953; !- X,Y,Z Vertex 4 {m}

OS:ShadingSurface,
  {39a1b056-bf6c-47f3-93e9-8eccf57ff3b6}, !- Handle
  ShadingB838W5896,                       !- Name
  ,                                       !- Construction Name
  {8d8c2a7a-2668-4040-8904-66edaeda1685}, !- Shading Surface Group Name
  ,                                       !- Transmittance Schedule Name
  ,                                       !- Number of Vertices
  -130.749816894531, 59.2384376525879, 12.4833323160807, !- X,Y,Z Vertex 1 {m}
  -130.749816894531, 59.2384376525879, 8.32222154405382, !- X,Y,Z Vertex 2 {m}
  -160.060455322266, 59.2384376525879, 8.32222154405382, !- X,Y,Z Vertex 3 {m}
  -160.060455322266, 59.2384376525879, 12.4833323160807; !- X,Y,Z Vertex 4 {m}

OS:ShadingSurface,
  {4b4d5f57-2f6f-4e46-b8a3-cff752b8d334}, !- Handle
  ShadingB398W3192,                       !- Name
  ,                                       !- Construction Name
  {8d8c2a7a-2668-4040-8904-66edaeda1685}, !- Shading Surface Group Name
  ,                                       !- Transmittance Schedule Name
  ,                                       !- Number of Vertices
  -260.333953857422, -87.5866622924805, 5.63333341810439, !- X,Y,Z Vertex 1 {m}
  -260.333953857422, -87.5866622924805, 0, !- X,Y,Z Vertex 2 {m}
  -260.333953857422, -53.0442581176758, 0, !- X,Y,Z Vertex 3 {m}
  -260.333953857422, -53.0442581176758, 5.63333341810439; !- X,Y,Z Vertex 4 {m}

OS:ShadingSurface,
  {afe87f0b-5f49-4b64-bea4-225dd81aa4fe}, !- Handle
  ShadingB1173W6133,                      !- Name
  ,                                       !- Construction Name
  {8d8c2a7a-2668-4040-8904-66edaeda1685}, !- Shading Surface Group Name
  ,                                       !- Transmittance Schedule Name
  ,                                       !- Number of Vertices
  -256.833251953125, -270.396514892578, 36, !- X,Y,Z Vertex 1 {m}
  -256.833251953125, -270.396514892578, 30, !- X,Y,Z Vertex 2 {m}
  -256.135711669922, -270.1640625, 30,    !- X,Y,Z Vertex 3 {m}
  -256.135711669922, -270.1640625, 36;    !- X,Y,Z Vertex 4 {m}

OS:ShadingSurface,
  {787112d4-7fdf-424f-a1de-d45ec6d6fecb}, !- Handle
  ShadingB797W5646,                       !- Name
  ,                                       !- Construction Name
  {8d8c2a7a-2668-4040-8904-66edaeda1685}, !- Shading Surface Group Name
  ,                                       !- Transmittance Schedule Name
  ,                                       !- Number of Vertices
  -123.341979980469, -18.0433044433594, 39.0444450378418, !- X,Y,Z Vertex 1 {m}
  -123.341979980469, -18.0433044433594, 33.466667175293, !- X,Y,Z Vertex 2 {m}
  -100.537895202637, -18.0433044433594, 33.466667175293, !- X,Y,Z Vertex 3 {m}
  -100.537895202637, -18.0433044433594, 39.0444450378418; !- X,Y,Z Vertex 4 {m}

OS:ShadingSurface,
  {7f007107-f960-4a1f-89f1-5d112d55c187}, !- Handle
  ShadingB545W5179,                       !- Name
  ,                                       !- Construction Name
  {8d8c2a7a-2668-4040-8904-66edaeda1685}, !- Shading Surface Group Name
  ,                                       !- Transmittance Schedule Name
  ,                                       !- Number of Vertices
  -240.546600341797, -219.661712646484, 16.5499992370606, !- X,Y,Z Vertex 1 {m}
  -240.546600341797, -219.661712646484, 8.27499961853028, !- X,Y,Z Vertex 2 {m}
  -220.732543945313, -215.629760742188, 8.27499961853027, !- X,Y,Z Vertex 3 {m}
  -220.732543945313, -215.629760742188, 16.5499992370606; !- X,Y,Z Vertex 4 {m}

OS:ShadingSurface,
  {183f4f14-ae0a-44b4-b3e0-e9bf04d374ce}, !- Handle
  ShadingB4226W4571,                      !- Name
  ,                                       !- Construction Name
  {8d8c2a7a-2668-4040-8904-66edaeda1685}, !- Shading Surface Group Name
  ,                                       !- Transmittance Schedule Name
  ,                                       !- Number of Vertices
  -235.86466738028, 60.9845924400819, 8.63609822591146, !- X,Y,Z Vertex 1 {m}
  -235.864661960682, 60.9845924354063, 2.63356844584147, !- X,Y,Z Vertex 2 {m}
  -228.369827270504, 60.9716606163515, 2.63356844584147, !- X,Y,Z Vertex 3 {m}
  -228.369827270512, 60.9716606116759, 8.63609822591146; !- X,Y,Z Vertex 4 {m}

OS:ShadingSurface,
  {f2ccf7a9-cdf6-4cc4-958f-c433d5475998}, !- Handle
  ShadingB1173W6253,                      !- Name
  ,                                       !- Construction Name
  {8d8c2a7a-2668-4040-8904-66edaeda1685}, !- Shading Surface Group Name
  ,                                       !- Transmittance Schedule Name
  ,                                       !- Number of Vertices
  -263.579315185547, -269.177520751953, 42, !- X,Y,Z Vertex 1 {m}
  -263.579315185547, -269.177520751953, 36, !- X,Y,Z Vertex 2 {m}
  -262.440979003906, -269.945373535156, 36, !- X,Y,Z Vertex 3 {m}
  -262.440979003906, -269.945373535156, 42; !- X,Y,Z Vertex 4 {m}

OS:ShadingSurface,
  {8459728f-cdc6-46f6-8c9b-d5242f3707ea}, !- Handle
  ShadingB904W4646,                       !- Name
  ,                                       !- Construction Name
  {8d8c2a7a-2668-4040-8904-66edaeda1685}, !- Shading Surface Group Name
  ,                                       !- Transmittance Schedule Name
  ,                                       !- Number of Vertices
  -206.122909545898, 54.2777938842773, -15.3740208943685, !- X,Y,Z Vertex 1 {m}
  -206.122909545898, 54.2777938842773, -21.3765506744385, !- X,Y,Z Vertex 2 {m}
  -206.122909545898, 56.6851615905762, -21.3765506744385, !- X,Y,Z Vertex 3 {m}
  -206.122909545898, 56.6851615905762, -15.3740208943685; !- X,Y,Z Vertex 4 {m}

OS:ShadingSurface,
  {4c73099c-3239-477f-8d9f-4d3b0f005dd5}, !- Handle
  ShadingB797W5713,                       !- Name
  ,                                       !- Construction Name
  {8d8c2a7a-2668-4040-8904-66edaeda1685}, !- Shading Surface Group Name
  ,                                       !- Transmittance Schedule Name
  ,                                       !- Number of Vertices
  -120.908050537109, -68.6093063354492, 11.1555557250977, !- X,Y,Z Vertex 1 {m}
  -120.908050537109, -68.6093063354492, 5.57777786254883, !- X,Y,Z Vertex 2 {m}
  -119.777908325195, -68.6093063354492, 5.57777786254883, !- X,Y,Z Vertex 3 {m}
  -119.777908325195, -68.6093063354492, 11.1555557250977; !- X,Y,Z Vertex 4 {m}

OS:ShadingSurface,
  {4afae34d-bee3-4876-bbcb-66276455bbca}, !- Handle
  ShadingB545W5189,                       !- Name
  ,                                       !- Construction Name
  {8d8c2a7a-2668-4040-8904-66edaeda1685}, !- Shading Surface Group Name
  ,                                       !- Transmittance Schedule Name
  ,                                       !- Number of Vertices
  -219.376770019531, -222.478622436523, 24.8249988555908, !- X,Y,Z Vertex 1 {m}
  -219.376770019531, -222.478622436523, 16.5499992370606, !- X,Y,Z Vertex 2 {m}
  -219.632431030273, -222.529998779297, 16.5499992370606, !- X,Y,Z Vertex 3 {m}
  -219.632431030273, -222.529998779297, 24.8249988555908; !- X,Y,Z Vertex 4 {m}

OS:ShadingSurface,
  {c478f200-9494-4bbb-a7bc-c34915a339e3}, !- Handle
  ShadingB797W5436,                       !- Name
  ,                                       !- Construction Name
  {8d8c2a7a-2668-4040-8904-66edaeda1685}, !- Shading Surface Group Name
  ,                                       !- Transmittance Schedule Name
  ,                                       !- Number of Vertices
  -101.057861328125, -31.2888259887695, 33.466667175293, !- X,Y,Z Vertex 1 {m}
  -101.057861328125, -31.2888259887695, 27.8888893127441, !- X,Y,Z Vertex 2 {m}
  -106.632347106934, -31.2888259887695, 27.8888893127441, !- X,Y,Z Vertex 3 {m}
  -106.632347106934, -31.2888259887695, 33.466667175293; !- X,Y,Z Vertex 4 {m}

OS:ShadingSurface,
  {8d62a17b-c884-4ccc-bf02-4550739bbea0}, !- Handle
  ShadingB797W5733,                       !- Name
  ,                                       !- Construction Name
  {8d8c2a7a-2668-4040-8904-66edaeda1685}, !- Shading Surface Group Name
  ,                                       !- Transmittance Schedule Name
  ,                                       !- Number of Vertices
  -113.646934509277, -10.6021575927734, 50.2000007629395, !- X,Y,Z Vertex 1 {m}
  -113.646934509277, -10.6021575927734, 46.0999984741211, !- X,Y,Z Vertex 2 {m}
  -113.040245056152, -10.6021575927734, 46.0999984741211, !- X,Y,Z Vertex 3 {m}
  -113.040245056152, -10.6021575927734, 44.6222229003906, !- X,Y,Z Vertex 4 {m}
  -123.341979980469, -10.6021575927734, 44.6222229003906, !- X,Y,Z Vertex 5 {m}
  -123.341979980469, -10.6021575927734, 50.2000007629395; !- X,Y,Z Vertex 6 {m}

OS:ShadingSurface,
  {78a3a0dc-f85a-4dec-86b8-e4a8b646a422}, !- Handle
  ShadingB1173W6102,                      !- Name
  ,                                       !- Construction Name
  {8d8c2a7a-2668-4040-8904-66edaeda1685}, !- Shading Surface Group Name
  ,                                       !- Transmittance Schedule Name
  ,                                       !- Number of Vertices
  -246.088745117188, -260.025512695313, 18, !- X,Y,Z Vertex 1 {m}
  -246.088745117188, -260.025512695313, 12, !- X,Y,Z Vertex 2 {m}
  -245.25309753418, -259.785888671875, 12, !- X,Y,Z Vertex 3 {m}
  -245.25309753418, -259.785888671875, 18; !- X,Y,Z Vertex 4 {m}

OS:ShadingSurface,
  {c9987964-f309-4eae-abcc-b08799db3001}, !- Handle
  ShadingB500W3988,                       !- Name
  ,                                       !- Construction Name
  {8d8c2a7a-2668-4040-8904-66edaeda1685}, !- Shading Surface Group Name
  ,                                       !- Transmittance Schedule Name
  ,                                       !- Number of Vertices
  -228.460083007813, 54.4323654174805, 14.6386280059814, !- X,Y,Z Vertex 1 {m}
  -228.460083007813, 54.4323654174805, 8.63609822591146, !- X,Y,Z Vertex 2 {m}
  -228.460083007813, 56.8397331237793, 8.63609822591146, !- X,Y,Z Vertex 3 {m}
  -228.460083007813, 56.8397331237793, 14.6386280059814; !- X,Y,Z Vertex 4 {m}

OS:ShadingSurface,
  {6d4aa87e-bbfb-4275-9b13-66b65c70bac2}, !- Handle
  ShadingB500W4109,                       !- Name
  ,                                       !- Construction Name
  {8d8c2a7a-2668-4040-8904-66edaeda1685}, !- Shading Surface Group Name
  ,                                       !- Transmittance Schedule Name
  ,                                       !- Number of Vertices
  -228.460083007813, 54.4323654174805, -15.4406865437825, !- X,Y,Z Vertex 1 {m}
  -228.460083007813, 54.4323654174805, -21.3765506744385, !- X,Y,Z Vertex 2 {m}
  -228.460083007813, 56.8397331237793, -21.3765506744385, !- X,Y,Z Vertex 3 {m}
  -228.460083007813, 56.8397331237793, -15.4406865437825; !- X,Y,Z Vertex 4 {m}

OS:ShadingSurface,
  {5603182f-798a-4c42-808b-09a924261381}, !- Handle
  ShadingB4134W11504,                     !- Name
  ,                                       !- Construction Name
  {8d8c2a7a-2668-4040-8904-66edaeda1685}, !- Shading Surface Group Name
  ,                                       !- Transmittance Schedule Name
  ,                                       !- Number of Vertices
  -122.846054077148, 78.4280853271484, 17.4375, !- X,Y,Z Vertex 1 {m}
  -122.846054077148, 78.4280853271484, 11.625, !- X,Y,Z Vertex 2 {m}
  -99.7960968017578, 78.4280853271484, 11.625, !- X,Y,Z Vertex 3 {m}
  -99.7960968017578, 78.4280853271484, 17.4375; !- X,Y,Z Vertex 4 {m}

OS:ShadingSurface,
  {92a0cf0f-43d5-43a6-8148-e928fd93459b}, !- Handle
  ShadingB3429W10797,                     !- Name
  ,                                       !- Construction Name
  {8d8c2a7a-2668-4040-8904-66edaeda1685}, !- Shading Surface Group Name
  ,                                       !- Transmittance Schedule Name
  ,                                       !- Number of Vertices
  -48.6118469238281, 78.4280853271484, 38.6555591159397, !- X,Y,Z Vertex 1 {m}
  -48.6118469238281, 78.4280853271484, 33.1333363850911, !- X,Y,Z Vertex 2 {m}
  -48.6118469238281, 79.4453353881836, 33.1333363850911, !- X,Y,Z Vertex 3 {m}
  -48.6118469238281, 79.4453353881836, 38.6555591159397; !- X,Y,Z Vertex 4 {m}

OS:ShadingSurface,
  {7196ba29-9de2-4373-a1c5-71238c55ab4e}, !- Handle
  ShadingB123W2702,                       !- Name
  ,                                       !- Construction Name
  {8d8c2a7a-2668-4040-8904-66edaeda1685}, !- Shading Surface Group Name
  ,                                       !- Transmittance Schedule Name
  ,                                       !- Number of Vertices
  -153.307220458984, -164.32080078125, 42.1199993133545, !- X,Y,Z Vertex 1 {m}
  -153.307220458984, -164.32080078125, 37.4399993896484, !- X,Y,Z Vertex 2 {m}
  -176.582885742188, -164.309112548828, 37.4399993896484, !- X,Y,Z Vertex 3 {m}
  -176.582885742188, -164.309112548828, 42.1199993133545; !- X,Y,Z Vertex 4 {m}

OS:ShadingSurface,
  {ce85afd0-5c80-489b-b007-b8a90f36931c}, !- Handle
  ShadingB1173W6152,                      !- Name
  ,                                       !- Construction Name
  {8d8c2a7a-2668-4040-8904-66edaeda1685}, !- Shading Surface Group Name
  ,                                       !- Transmittance Schedule Name
  ,                                       !- Number of Vertices
  -256.135711669922, -270.1640625, 42,    !- X,Y,Z Vertex 1 {m}
  -256.135711669922, -270.1640625, 36,    !- X,Y,Z Vertex 2 {m}
  -255.734588623047, -269.985504150391, 36, !- X,Y,Z Vertex 3 {m}
  -255.734588623047, -269.985504150391, 42; !- X,Y,Z Vertex 4 {m}

OS:ShadingSurface,
  {6a0e6bbd-3869-4c13-b706-94ce1231c5c5}, !- Handle
  ShadingB500W4015,                       !- Name
  ,                                       !- Construction Name
  {8d8c2a7a-2668-4040-8904-66edaeda1685}, !- Shading Surface Group Name
  ,                                       !- Transmittance Schedule Name
  ,                                       !- Number of Vertices
  -226.091262817383, 38.452564239502, 20.6411577860514, !- X,Y,Z Vertex 1 {m}
  -226.091262817383, 38.452564239502, 20.4744936625163, !- X,Y,Z Vertex 2 {m}
  -226.071166992188, 54.4323654174805, 20.4744936625163, !- X,Y,Z Vertex 3 {m}
  -226.071166992188, 54.4323654174805, 20.6411577860514; !- X,Y,Z Vertex 4 {m}

OS:ShadingSurface,
  {ce9dc0f6-4349-4a91-96b5-f0452ce8730b}, !- Handle
  ShadingB904W4720,                       !- Name
  ,                                       !- Construction Name
  {8d8c2a7a-2668-4040-8904-66edaeda1685}, !- Shading Surface Group Name
  ,                                       !- Transmittance Schedule Name
  ,                                       !- Number of Vertices
  -213.738250732422, 38.310546875, 26.6436875661214, !- X,Y,Z Vertex 1 {m}
  -213.738250732422, 38.310546875, 20.6411577860514, !- X,Y,Z Vertex 2 {m}
  -203.754089355469, 38.2979927062988, 20.6411577860514, !- X,Y,Z Vertex 3 {m}
  -203.754089355469, 38.2979927062988, 26.6436875661214; !- X,Y,Z Vertex 4 {m}

OS:ShadingSurface,
  {34b48936-9c63-423a-8bea-b9a4c33f120f}, !- Handle
  ShadingB904W4645,                       !- Name
  ,                                       !- Construction Name
  {8d8c2a7a-2668-4040-8904-66edaeda1685}, !- Shading Surface Group Name
  ,                                       !- Transmittance Schedule Name
  ,                                       !- Number of Vertices
  -206.122909545898, 54.2777938842773, 31.5383148193359, !- X,Y,Z Vertex 1 {m}
  -206.122909545898, 54.2777938842773, 26.6436875661214, !- X,Y,Z Vertex 2 {m}
  -206.122909545898, 56.6851615905762, 26.6436875661214, !- X,Y,Z Vertex 3 {m}
  -206.122909545898, 56.6851615905762, 31.5369110107422; !- X,Y,Z Vertex 4 {m}

OS:ShadingSurface,
  {8334ce43-d544-4f02-ae0a-8ba419fdcb6d}, !- Handle
  ShadingB1173W6597,                      !- Name
  ,                                       !- Construction Name
  {8d8c2a7a-2668-4040-8904-66edaeda1685}, !- Shading Surface Group Name
  ,                                       !- Transmittance Schedule Name
  ,                                       !- Number of Vertices
  -225.400726318359, -253.995803833008, 30, !- X,Y,Z Vertex 1 {m}
  -225.400726318359, -253.995803833008, 24, !- X,Y,Z Vertex 2 {m}
  -224.749359130859, -253.412673950195, 24, !- X,Y,Z Vertex 3 {m}
  -224.749359130859, -253.412673950195, 30; !- X,Y,Z Vertex 4 {m}

OS:ShadingSurface,
  {d1dc9b0c-38e3-4ed5-b095-ed2ce31fd33a}, !- Handle
  ShadingB398W2857,                       !- Name
  ,                                       !- Construction Name
  {8d8c2a7a-2668-4040-8904-66edaeda1685}, !- Shading Surface Group Name
  ,                                       !- Transmittance Schedule Name
  ,                                       !- Number of Vertices
  -212.272262573242, -46.2143173217773, 33.8000005086263, !- X,Y,Z Vertex 1 {m}
  -212.272262573242, -46.2143173217773, 28.1666670905219, !- X,Y,Z Vertex 2 {m}
  -212.272262573242, 24.9009246826172, 28.1666670905219, !- X,Y,Z Vertex 3 {m}
  -212.272262573242, 24.9009246826172, 33.8000005086263; !- X,Y,Z Vertex 4 {m}

OS:ShadingSurface,
  {737edc94-dda2-4c69-87e8-99ccdc5a91e3}, !- Handle
  ShadingB838W5833,                       !- Name
  ,                                       !- Construction Name
  {8d8c2a7a-2668-4040-8904-66edaeda1685}, !- Shading Surface Group Name
  ,                                       !- Transmittance Schedule Name
  ,                                       !- Number of Vertices
  -138.89973449707, 40.4558067321777, 24.9666646321615, !- X,Y,Z Vertex 1 {m}
  -138.89973449707, 40.4558067321777, 20.8055538601345, !- X,Y,Z Vertex 2 {m}
  -130.749816894531, 40.4558067321777, 20.8055538601345, !- X,Y,Z Vertex 3 {m}
  -130.749816894531, 40.4558067321777, 24.9666646321615; !- X,Y,Z Vertex 4 {m}

OS:ShadingSurface,
  {33755af2-2880-4a88-91c5-f9a9a6cf39bc}, !- Handle
  ShadingB1173W6117,                      !- Name
  ,                                       !- Construction Name
  {8d8c2a7a-2668-4040-8904-66edaeda1685}, !- Shading Surface Group Name
  ,                                       !- Transmittance Schedule Name
  ,                                       !- Number of Vertices
  -258.079211278694, -270.664137188444, 41.9999952683808, !- X,Y,Z Vertex 1 {m}
  -258.080382204518, -270.658548142644, 36.0000007031358, !- X,Y,Z Vertex 2 {m}
  -256.833100461498, -270.397237990168, 35.9999992968642, !- X,Y,Z Vertex 3 {m}
  -256.831929535674, -270.402827035967, 41.9999938621092; !- X,Y,Z Vertex 4 {m}

OS:ShadingSurface,
  {05e0c46b-8f2a-4115-ac17-94117440e47f}, !- Handle
  ShadingB4134W11587,                     !- Name
  ,                                       !- Construction Name
  {8d8c2a7a-2668-4040-8904-66edaeda1685}, !- Shading Surface Group Name
  ,                                       !- Transmittance Schedule Name
  ,                                       !- Number of Vertices
  -120.26057434082, 143.598373413086, 39.5, !- X,Y,Z Vertex 1 {m}
  -120.26057434082, 143.598373413086, 34.875, !- X,Y,Z Vertex 2 {m}
  -120.26057434082, 85.6761856079102, 34.875, !- X,Y,Z Vertex 3 {m}
  -120.26057434082, 85.6761856079102, 39.5; !- X,Y,Z Vertex 4 {m}

OS:ShadingSurface,
  {deabdca5-c8a8-4be7-920e-9878db87d82f}, !- Handle
  ShadingB4247W4359,                      !- Name
  ,                                       !- Construction Name
  {8d8c2a7a-2668-4040-8904-66edaeda1685}, !- Shading Surface Group Name
  ,                                       !- Transmittance Schedule Name
  ,                                       !- Number of Vertices
  -206.104385375977, 63.4990768432617, 20.6411577860514, !- X,Y,Z Vertex 1 {m}
  -206.104385375977, 63.4990768432617, 14.6386280059814, !- X,Y,Z Vertex 2 {m}
  -203.74089050293, 63.4990768432617, 14.6386280059814, !- X,Y,Z Vertex 3 {m}
  -203.74089050293, 63.4990768432617, 20.6411577860514; !- X,Y,Z Vertex 4 {m}

OS:ShadingSurface,
  {0c0f2457-fd33-45b6-99ce-5c41cb49e4d6}, !- Handle
  ShadingB4134W11807,                     !- Name
  ,                                       !- Construction Name
  {8d8c2a7a-2668-4040-8904-66edaeda1685}, !- Shading Surface Group Name
  ,                                       !- Transmittance Schedule Name
  ,                                       !- Number of Vertices
  -146.080062866211, 115.49885559082, 5.8125, !- X,Y,Z Vertex 1 {m}
  -146.080062866211, 115.49885559082, 0,  !- X,Y,Z Vertex 2 {m}
  -156.580581665039, 115.49885559082, 0,  !- X,Y,Z Vertex 3 {m}
  -156.580581665039, 115.49885559082, 5.8125; !- X,Y,Z Vertex 4 {m}

OS:ShadingSurface,
  {58165678-9e9f-458b-8ae2-1b4a473b458e}, !- Handle
  ShadingB4247W4452,                      !- Name
  ,                                       !- Construction Name
  {8d8c2a7a-2668-4040-8904-66edaeda1685}, !- Shading Surface Group Name
  ,                                       !- Transmittance Schedule Name
  ,                                       !- Number of Vertices
  -213.605895996094, 61.0822715759277, 26.6436875661214, !- X,Y,Z Vertex 1 {m}
  -213.605895996094, 61.0822715759277, 20.6411577860514, !- X,Y,Z Vertex 2 {m}
  -206.104385375977, 61.0693283081055, 20.6411577860514, !- X,Y,Z Vertex 3 {m}
  -206.104385375977, 61.0693283081055, 26.6436875661214; !- X,Y,Z Vertex 4 {m}

OS:ShadingSurface,
  {f6e393e5-34a7-4421-a4d4-b9fa81e2566b}, !- Handle
  ShadingB4134W11798,                     !- Name
  ,                                       !- Construction Name
  {8d8c2a7a-2668-4040-8904-66edaeda1685}, !- Shading Surface Group Name
  ,                                       !- Transmittance Schedule Name
  ,                                       !- Number of Vertices
  -156.580581665039, 132.176223754883, 23.25, !- X,Y,Z Vertex 1 {m}
  -156.580581665039, 132.176223754883, 17.4375, !- X,Y,Z Vertex 2 {m}
  -146.080062866211, 132.176223754883, 17.4375, !- X,Y,Z Vertex 3 {m}
  -146.080062866211, 132.176223754883, 23.25; !- X,Y,Z Vertex 4 {m}

OS:ShadingSurface,
  {495887f6-417d-4ac3-92a2-19ae99a15215}, !- Handle
  ShadingB1173W5982,                      !- Name
  ,                                       !- Construction Name
  {8d8c2a7a-2668-4040-8904-66edaeda1685}, !- Shading Surface Group Name
  ,                                       !- Transmittance Schedule Name
  ,                                       !- Number of Vertices
  -245.25309753418, -259.785888671875, 12, !- X,Y,Z Vertex 1 {m}
  -245.25309753418, -259.785888671875, 6, !- X,Y,Z Vertex 2 {m}
  -236.140045166016, -258.623474121094, 6, !- X,Y,Z Vertex 3 {m}
  -236.140045166016, -258.623474121094, 12; !- X,Y,Z Vertex 4 {m}

OS:ShadingSurface,
  {3e7af89f-9b6c-41af-8099-4b5dc5b3484e}, !- Handle
  ShadingB1173W6071,                      !- Name
  ,                                       !- Construction Name
  {8d8c2a7a-2668-4040-8904-66edaeda1685}, !- Shading Surface Group Name
  ,                                       !- Transmittance Schedule Name
  ,                                       !- Number of Vertices
  -247.157608032227, -260.488555908203, 30, !- X,Y,Z Vertex 1 {m}
  -247.157608032227, -260.488555908203, 24, !- X,Y,Z Vertex 2 {m}
  -246.088745117188, -260.025512695313, 24, !- X,Y,Z Vertex 3 {m}
  -246.088745117188, -260.025512695313, 30; !- X,Y,Z Vertex 4 {m}

OS:Schedule:Compact,
  {3c576098-40c4-4b51-8a68-62d4e2363e5c}, !- Handle
  HVACTemplate_Always_26,                 !- Name
  {4da1edc2-eeee-4697-ab20-a10a22898a6b}, !- Schedule Type Limits Name
  Through: 12/31,                         !- Field 1
  For: AllDays,                           !- Field 2
  Until: 24:00,                           !- Field 3
  26;                                     !- Field 4

OS:ShadingSurface,